geometry optimzed in LAMMPS
_audit_creation_date              2020-11-30 
_audit_creation_method            'lammps2cif' 
_symmetry_space_group_name_H-M    'P1' 
_symmetry_Int_Tables_number       1 
_symmetry_cell_setting            triclinic 
loop_ 
_symmetry_equiv_pos_as_xyz 
  x,y,z 
_cell_length_a                    70.64328855023592 
_cell_length_b                    37.9501318015537 
_cell_length_c                    37.85064779888631 
_cell_angle_alpha                 90.99587332467442 
_cell_angle_beta                  89.59324167862835 
_cell_angle_gamma                 90.61291272199192 
loop_ 
_atom_site_label 
_atom_site_type_symbol 
_atom_site_fract_x 
_atom_site_fract_y 
_atom_site_fract_z 
_atom_site_charge 
C1          C  0.74717127  0.38345562  0.38260701    -0.02930
C2          C  0.75021283  0.37061255  0.89675798    -0.02930
C3          C  0.25031995  0.12105584  0.62154436    -0.02930
C4          C  0.24643455  0.12344344  0.12832402    -0.02930
C5          C  0.44347532  0.29911438  0.18432733    -0.02930
C6          C  0.05659762  0.45854270  0.17872267    -0.02930
C7          C  0.55330511  0.20394772  0.83168543    -0.02930
C8          C  0.94461877  0.05076154  0.82463780    -0.02930
In9        In  0.17124568  0.25590343  0.02341194     1.36870
C10         C  0.19469566  0.30050743  0.05320896     0.77140
O11         O  0.14922355  0.29737552  0.02316837    -0.61310
O12         O  0.14310583  0.25147982  0.05268683    -0.52220
C13         C  0.16549377  0.24497232  0.95578762     0.69800
O14         O  0.17270670  0.27297538  0.96829822    -0.47080
C15         C  0.19404789  0.20433662  0.04243952     0.74510
O16         O  0.19355902  0.29710311  0.02010181    -0.58940
O17         O  0.17700604  0.20631798  0.05316869    -0.49030
O18         O  0.18253398  0.28328433  0.07061858    -0.55370
C19         C  0.13747023  0.28106355  0.04211807     0.84690
O20         O  0.16111169  0.22191349  0.97819882    -0.57260
O21         O  0.19852980  0.22673555  0.01967520    -0.60560
C22         C  0.06062887  0.33449502  0.07400236    -0.02930
In23       In  0.00333078  0.36481902  0.87965042     1.36870
C24         C  0.98365087  0.42380901  0.87136032     0.77140
O25         O  0.02681629  0.37291074  0.83915141    -0.61310
O26         O  0.00279437  0.34285498  0.82431977    -0.52220
C27         C  0.02128729  0.36664389  0.94126904     0.69800
O28         O  0.00370814  0.37076574  0.93847450    -0.47080
C29         C  0.98596085  0.30408345  0.89379207     0.74510
O30         O  0.00083954  0.42423392  0.88020536    -0.58940
O31         O  0.00354097  0.30635695  0.88797786    -0.49030
O32         O  0.97682248  0.39332314  0.86730654    -0.55370
C33         C  0.01859511  0.35532499  0.81505543     0.84690
O34         O  0.03013418  0.36461049  0.91220096    -0.57260
O35         O  0.97731965  0.33289554  0.89150933    -0.60560
C36         C  0.25327787  0.37957940  0.12950558    -0.02930
In37       In  0.33216105  0.00179538  0.02139884     1.36870
C38         C  0.31275672  0.45391281  0.05321164     0.77140
O39         O  0.35355015  0.45956740  0.02726300    -0.61310
O40         O  0.36182276  0.01181917  0.04204440    -0.52220
C41         C  0.33409479  0.01361109  0.95305973     0.69800
O42         O  0.32574717  0.48735401  0.96603953    -0.47080
C43         C  0.30662065  0.04740588  0.04726744     0.74510
O44         O  0.31455569  0.45313966  0.01991562    -0.58940
O45         O  0.32401566  0.04966174  0.05524469    -0.49030
O46         O  0.32264988  0.47662746  0.06973729    -0.55370
C47         C  0.36622158  0.47954374  0.03983778     0.84690
O48         O  0.34230386  0.03373680  0.97517683    -0.57260
O49         O  0.30299496  0.02443705  0.02388151    -0.60560
C50         C  0.43976074  0.41953381  0.08047650    -0.02930
In51       In  0.49732118  0.39293384  0.88672800     1.36870
C52         C  0.51620871  0.33208302  0.88353455     0.77140
O53         O  0.49182465  0.38214963  0.82810291    -0.61310
O54         O  0.47781987  0.42443642  0.85266193    -0.52220
C55         C  0.47641432  0.38414992  0.94523973     0.69800
O56         O  0.49425843  0.38497736  0.94481101    -0.47080
C57         C  0.51756861  0.45212698  0.89948534     0.74510
O58         O  0.49834022  0.33346119  0.88433640    -0.58940
O59         O  0.50168237  0.44568250  0.91324423    -0.49030
O60         O  0.52422715  0.36195961  0.88455147    -0.55370
C61         C  0.48090401  0.40777945  0.82427761     0.84690
O62         O  0.46911973  0.38580672  0.91493699    -0.57260
O63         O  0.52339225  0.42772162  0.87928347    -0.60560
In64       In  0.83220655  0.24015918  0.98622695     1.36870
C65         C  0.81254633  0.19762230  0.94510816     0.77140
O66         O  0.80362030  0.26320827  0.99038113    -0.61310
O67         O  0.82451400  0.29180557  0.96133233    -0.52220
C68         C  0.83387061  0.24519152  0.05593254     0.69800
O69         O  0.82758604  0.21838206  0.03955732    -0.47080
C70         C  0.86722220  0.22349159  0.96727608     0.74510
O71         O  0.81431628  0.19169579  0.97774028    -0.58940
O72         O  0.86182379  0.25519348  0.96869094    -0.49030
O73         O  0.82224847  0.22314653  0.93352384    -0.55370
C74         C  0.80728964  0.28880050  0.97065395     0.84690
O75         O  0.83990348  0.26938239  0.03618775    -0.57260
O76         O  0.85480465  0.20105049  0.97561101    -0.60560
C77         C  0.94354756  0.17317540  0.93070749    -0.02930
In78       In  0.99853123  0.15031822  0.12894888     1.36870
C79         C  0.98003749  0.14729957  0.06702772     0.77140
O80         O  0.97787531  0.13484923  0.17209472    -0.61310
O81         O  0.98774981  0.18755899  0.17107154    -0.52220
C82         C  0.01566963  0.08920967  0.14370842     0.69800
O83         O  0.00535392  0.09304750  0.11709184    -0.47080
C84         C  0.02163532  0.20568459  0.12126862     0.74510
O85         O  0.99771612  0.14993145  0.06958007    -0.58940
O86         O  0.00431937  0.20840570  0.12856359    -0.49030
O87         O  0.97159663  0.14624858  0.09651965    -0.55370
C88         C  0.97789356  0.16497297  0.18684756     0.84690
O89         O  0.01772224  0.11695829  0.16222085    -0.57260
O90         O  0.02743079  0.17433194  0.11849004    -0.60560
C91         C  0.75276407  0.13000902  0.86058297    -0.02930
In92       In  0.67024374  0.51529717  0.97826774     1.36870
C93         C  0.69277452  0.05776681  0.94245691     0.77140
O94         O  0.69618745  0.48375348  0.98544079    -0.61310
O95         O  0.67726842  0.46816952  0.94434810    -0.52220
C96         C  0.66682311  0.50938913  0.04767399     0.69800
O97         O  0.67359123  0.03651532  0.03297724    -0.47080
C98         C  0.63562441  0.03309446  0.95893296     0.74510
O99         O  0.69104224  0.06033371  0.97573224    -0.58940
O100        O  0.64056286  0.50122943  0.96088504    -0.49030
O101        O  0.68189215  0.03539293  0.92805904    -0.55370
C102        C  0.69326204  0.46446482  0.95860918     0.84690
O103        O  0.66126377  0.48552933  0.02641520    -0.57260
O104        O  0.64828681  0.05529248  0.96719564    -0.60560
C105        C  0.55846773  0.08527485  0.93716320    -0.02930
In106      In  0.50163616  0.10817332  0.13368984     1.36870
C107        C  0.52197851  0.11587345  0.07419174     0.77140
O108        O  0.52680336  0.10281526  0.16914466    -0.61310
O109        O  0.49994374  0.08738104  0.18916398    -0.52220
C110        C  0.48557754  0.17037703  0.14652398     0.69800
O111        O  0.47858862  0.14765181  0.12569860    -0.47080
C112        C  0.48147677  0.05064973  0.11709991     0.74510
O113        O  0.50485389  0.12438418  0.07689491    -0.58940
O114        O  0.47437387  0.07656054  0.13350514    -0.49030
O115        O  0.52896320  0.10547311  0.10272334    -0.55370
C116        C  0.51746259  0.09054618  0.19480135     0.84690
O117        O  0.50109096  0.16193505  0.16001009    -0.57260
O118        O  0.49889378  0.05382537  0.11074046    -0.60560
In119      In  0.66881342  0.00367137  0.27003979     1.36870
C120        C  0.69426631  0.04818895  0.29419518     0.77140
O121        O  0.64755380  0.04363717  0.28664511    -0.61310
O122        O  0.63890131  0.48989225  0.28585544    -0.52220
C123        C  0.66614602  0.50286701  0.20039065     0.69800
O124        O  0.66910817  0.03024618  0.21880180    -0.47080
C125        C  0.68863374  0.45249978  0.29857221     0.74510
O126        O  0.69333728  0.04021315  0.26186452    -0.58940
O127        O  0.67348291  0.46372995  0.31229085    -0.49030
O128        O  0.68145787  0.03547070  0.31355856    -0.55370
C129        C  0.63449437  0.02161287  0.29217920     0.84690
O130        O  0.66315093  0.47526019  0.21800063    -0.57260
O131        O  0.69184284  0.46367450  0.26797580    -0.60560
In132      In  0.83016077  0.25721065  0.27832537     1.36870
C133        C  0.81193994  0.20691844  0.31047239     0.77140
O134        O  0.85405109  0.22011220  0.27846099    -0.61310
O135        O  0.85851761  0.26987371  0.30379403    -0.52220
C136        C  0.83173975  0.26006689  0.20846967     0.69800
O137        O  0.82419939  0.23550520  0.22555393    -0.47080
C138        C  0.80469447  0.30311030  0.30200297     0.74510
O139        O  0.81375711  0.20797570  0.27736389    -0.58940
O140        O  0.82224898  0.30823796  0.30682638    -0.49030
O141        O  0.82109191  0.23028877  0.32746631    -0.55370
C142        C  0.86520801  0.24010864  0.29516885     0.84690
O143        O  0.83829685  0.28496877  0.22756962    -0.57260
O144        O  0.80073048  0.27741979  0.28194542    -0.60560
In145      In  0.33258582  0.50341773  0.73384168     1.36870
C146        C  0.31248604  0.45270631  0.70703006     0.77140
O147        O  0.30364576  0.02739117  0.73139950    -0.61310
O148        O  0.32533595  0.05011903  0.70021039    -0.52220
C149        C  0.33439136  0.01663072  0.80230878     0.69800
O150        O  0.32475252  0.49209350  0.78883507    -0.47080
C151        C  0.36709475  0.48326591  0.71427465     0.74510
O152        O  0.31632865  0.45357395  0.73949325    -0.58940
O153        O  0.36054005  0.01278926  0.70568025    -0.49030
O154        O  0.32122607  0.47454053  0.68799820    -0.55370
C155        C  0.30786943  0.04919922  0.70793281     0.84690
O156        O  0.34337684  0.03548660  0.78050630    -0.57260
O157        O  0.35605964  0.46496217  0.73289346    -0.60560
In158      In  0.17086823  0.24343389  0.73689134     1.36870
C159        C  0.19463419  0.28958979  0.71155111     0.77140
O160        O  0.19798675  0.21367531  0.73841203    -0.61310
O161        O  0.17728126  0.19722632  0.70105906    -0.52220
C162        C  0.16451572  0.23929668  0.80522340     0.69800
O163        O  0.17008858  0.26678930  0.79017122    -0.47080
C164        C  0.13658003  0.26177499  0.71621463     0.74510
O165        O  0.19385105  0.28291030  0.74397308    -0.58940
O166        O  0.14256327  0.23072374  0.71150233    -0.49030
O167        O  0.18194543  0.27497147  0.69289085    -0.55370
C168        C  0.19407242  0.19441546  0.71202672     0.84690
O169        O  0.16240119  0.21262863  0.78506054    -0.57260
O170        O  0.14825808  0.28293454  0.73020662    -0.60560
C171        C  0.94284071  0.19536737  0.32714716    -0.02930
C172        C  0.55570889  0.05357382  0.32743907    -0.02930
In173      In  0.67158547  0.24300428  0.48486479     1.36870
C174        C  0.69699793  0.20092502  0.45664361     0.77140
O175        O  0.65086221  0.19810261  0.48002121    -0.61310
O176        O  0.64237538  0.24782774  0.46141472    -0.52220
C177        C  0.66848683  0.25269065  0.55413566     0.69800
O178        O  0.67812106  0.22871745  0.53954716    -0.47080
C179        C  0.69094129  0.29808281  0.46102191     0.74510
O180        O  0.69220117  0.19881717  0.48865348    -0.58940
O181        O  0.67571093  0.28734032  0.44692460    -0.49030
O182        O  0.68781322  0.22241734  0.43875887    -0.55370
C183        C  0.63803787  0.21590137  0.46625584     0.84690
O184        O  0.66007638  0.27231716  0.53277541    -0.57260
O185        O  0.69476885  0.28346644  0.48968399    -0.60560
C186        C  0.55948862  0.17238316  0.43651398    -0.02930
In187      In  0.50248042  0.14208002  0.63486161     1.36870
C188        C  0.48662904  0.07893136  0.65019185     0.77140
O189        O  0.52836203  0.14329954  0.66982881    -0.61310
O190        O  0.50216378  0.16120031  0.69075832    -0.52220
C191        C  0.52148524  0.14307001  0.57335993     0.69800
O192        O  0.50568431  0.12779224  0.57675114    -0.47080
C193        C  0.48217201  0.20011863  0.62227060     0.74510
O194        O  0.50389883  0.08251868  0.64224834    -0.58940
O195        O  0.49726933  0.20073435  0.63964941    -0.49030
O196        O  0.47767693  0.10753027  0.64964447    -0.55370
C197        C  0.51962252  0.15698513  0.69580807     0.84690
O198        O  0.52797703  0.15574795  0.60183992    -0.57260
O199        O  0.47714165  0.16956432  0.61209802    -0.60560
C200        C  0.75232473  0.12104977  0.37499454    -0.02930
In201      In  0.83146278  0.50171999  0.48808675     1.36870
C202        C  0.80898715  0.04353179  0.45453740     0.77140
O203        O  0.85251444  0.04536309  0.48123953    -0.61310
O204        O  0.86020162  0.49453378  0.46243126    -0.52220
C205        C  0.83511827  0.49468344  0.55714043     0.69800
O206        O  0.82813201  0.02136652  0.54301715    -0.47080
C207        C  0.80671565  0.45280384  0.46797321     0.74510
O208        O  0.81098879  0.04538385  0.48766020    -0.58940
O209        O  0.82389187  0.45125308  0.45800178    -0.49030
O210        O  0.82007333  0.02262868  0.43864631    -0.55370
C211        C  0.86478920  0.02682300  0.46564319     0.84690
O212        O  0.84102513  0.47150135  0.53545720    -0.57260
O213        O  0.80332078  0.47563262  0.49158939    -0.60560
C214        C  0.94189171  0.08133443  0.43916712    -0.02930
In215      In  0.00165863  0.11139453  0.63413556     1.36870
C216        C  0.02269497  0.16981015  0.64585508     0.77140
O217        O  0.98235213  0.12846149  0.68004246    -0.61310
O218        O  0.98847572  0.07449046  0.67178292    -0.52220
C219        C  0.98102711  0.10960695  0.57511049     0.69800
O220        O  0.99816916  0.11862504  0.57634620    -0.47080
C221        C  0.02221993  0.05387193  0.62079502     0.74510
O222        O  0.00723963  0.17000985  0.62955984    -0.58940
O223        O  0.01805239  0.06376669  0.65176690    -0.49030
O224        O  0.02740178  0.13981548  0.65629688    -0.55370
C225        C  0.98061642  0.09735060  0.69114999     0.84690
O226        O  0.97377950  0.10386971  0.60512377    -0.57260
O227        O  0.01748677  0.07532667  0.59754065    -0.60560
In228      In  0.17003225  0.98484125  0.52742753     1.36870
C229        C  0.19059903  0.44089364  0.56187002     0.77140
O230        O  0.19872326  0.00849998  0.52135574    -0.61310
O231        O  0.17900038  0.03576176  0.55443939    -0.52220
C232        C  0.16638862  0.99150602  0.45933238     0.69800
O233        O  0.17342248  0.46472975  0.47350633    -0.47080
C234        C  0.13555761  0.46465349  0.54677533     0.74510
O235        O  0.18835999  0.43825240  0.52888506    -0.58940
O236        O  0.14165052  0.99587669  0.55150719    -0.49030
O237        O  0.18058246  0.46390934  0.57739967    -0.55370
C238        C  0.19591418  0.03330210  0.54314869     0.84690
O239        O  0.16075810  0.01517461  0.48065963    -0.57260
O240        O  0.14718992  0.44418867  0.53195997    -0.60560
C241        C  0.05613348  0.41902205  0.57442295    -0.02930
In242      In  0.00117231  0.39371576  0.37267227     1.36870
C243        C  0.01931037  0.39201243  0.43491170     0.77140
O244        O  0.02753292  0.40177107  0.33931119    -0.61310
O245        O  0.00106361  0.40406733  0.31385674    -0.52220
C246        C  0.98347907  0.33097340  0.36067558     0.69800
O247        O  0.00038288  0.33314865  0.37120714    -0.47080
C248        C  0.98239646  0.45314910  0.38953497     0.74510
O249        O  0.00156480  0.39063418  0.43204481    -0.58940
O250        O  0.99853829  0.45338881  0.37514000    -0.49030
O251        O  0.02788952  0.39199306  0.40554326    -0.55370
C252        C  0.01881087  0.40660315  0.31082986     0.84690
O253        O  0.97617775  0.36061289  0.35607300    -0.57260
O254        O  0.97547417  0.42267340  0.39298938    -0.60560
C255        C  0.25140389  0.37589585  0.64057193    -0.02930
In256      In  0.32925322  0.25678493  0.52419853     1.36870
C257        C  0.31192089  0.30212735  0.56483676     0.77140
O258        O  0.29942243  0.23742299  0.52400697    -0.61310
O259        O  0.32009605  0.20500679  0.54755115    -0.52220
C260        C  0.33031231  0.24847386  0.45520321     0.69800
O261        O  0.32377122  0.27555869  0.47054894    -0.47080
C262        C  0.36487453  0.27405416  0.53868010     0.74510
O263        O  0.31286532  0.30575404  0.53171015    -0.58940
O264        O  0.35774974  0.24479948  0.54795884    -0.49030
O265        O  0.32178554  0.27772906  0.57707036    -0.55370
C266        C  0.30270186  0.21028165  0.54144740     0.84690
O267        O  0.33669060  0.22543511  0.47553874    -0.57260
O268        O  0.35374560  0.29354487  0.52228669    -0.60560
C269        C  0.44208219  0.32720454  0.57535563    -0.02930
In270      In  0.49931985  0.35928274  0.37858069     1.36870
C271        C  0.48190818  0.36221887  0.44153037     0.77140
O272        O  0.47340908  0.35060547  0.34477509    -0.61310
O273        O  0.50018168  0.34395913  0.32064845    -0.52220
C274        C  0.51550137  0.42170582  0.36412576     0.69800
O275        O  0.49906904  0.41924762  0.37717112    -0.47080
C276        C  0.51913543  0.30158428  0.39368393     0.74510
O277        O  0.47277243  0.36197740  0.41295803    -0.58940
O278        O  0.50202730  0.30037995  0.38433143    -0.49030
O279        O  0.49960413  0.36423224  0.43757313    -0.55370
C280        C  0.48250203  0.34287530  0.31690512     0.84690
O281        O  0.52357464  0.39257874  0.35972145    -0.57260
O282        O  0.52606660  0.33230746  0.39435656    -0.60560
C283        C  0.44638236  0.44549175  0.68752796    -0.02930
C284        C  0.05842899  0.30595463  0.68749534    -0.02930
In285      In  0.17118377  0.49793028  0.23910669     1.36870
C286        C  0.19235918  0.45177037  0.20585684     0.77140
O287        O  0.14714109  0.46296436  0.22441388    -0.61310
O288        O  0.14268271  0.01804714  0.22313256    -0.52220
C289        C  0.16738797  0.99655580  0.30780898     0.69800
O290        O  0.17006998  0.46960970  0.28876880    -0.47080
C291        C  0.19621685  0.04658298  0.22208598     0.74510
O292        O  0.19095763  0.45308302  0.23904073    -0.58940
O293        O  0.17961826  0.04636148  0.20971247    -0.49030
O294        O  0.18152175  0.47228021  0.18979656    -0.55370
C295        C  0.13568270  0.48741501  0.21929510     0.84690
O296        O  0.16585477  0.02492594  0.29115297    -0.57260
O297        O  0.19904622  0.02480055  0.24606838    -0.60560
In298      In  0.32851136  0.24826511  0.23413923     1.36870
C299        C  0.31100411  0.29587338  0.19832603     0.77140
O300        O  0.35347114  0.28335700  0.22851791    -0.61310
O301        O  0.35653671  0.23013276  0.21192651    -0.52220
C302        C  0.32909157  0.24390604  0.30346558     0.69800
O303        O  0.32485991  0.27139469  0.28738038    -0.47080
C304        C  0.30203856  0.20358862  0.21274244     0.74510
O305        O  0.31240275  0.29774323  0.23156623    -0.58940
O306        O  0.31940821  0.19790842  0.20666298    -0.49030
O307        O  0.32041155  0.27170892  0.18342050    -0.55370
C308        C  0.36413057  0.26032696  0.21505543     0.84690
O309        O  0.33388545  0.21821289  0.28383998    -0.57260
O310        O  0.29864988  0.22966317  0.23261475    -0.60560
In311      In  0.83082887  0.98609221  0.77943585     1.36870
C312        C  0.80338267  0.03130407  0.78938613     0.77140
O313        O  0.81502292  0.43474140  0.78717241    -0.61310
O314        O  0.82303947  0.46490024  0.83231117    -0.52220
C315        C  0.83338204  0.48624694  0.70949556     0.69800
O316        O  0.83030932  0.01328002  0.72821353    -0.47080
C317        C  0.86577172  0.00184783  0.80031606     0.74510
O318        O  0.80039297  0.00090836  0.77665270    -0.58940
O319        O  0.86188560  0.47400953  0.78287387    -0.49030
O320        O  0.82056494  0.03920656  0.79446491    -0.55370
C321        C  0.81309656  0.43993103  0.82002292     0.84690
O322        O  0.83604238  0.45853379  0.72677111    -0.57260
O323        O  0.85164064  0.02008729  0.80875547    -0.60560
In324      In  0.66803581  0.25753567  0.77629926     1.36870
C325        C  0.69227129  0.21247462  0.80034658     0.77140
O326        O  0.69205033  0.29662001  0.77669934    -0.61310
O327        O  0.67389403  0.29583879  0.82121732    -0.52220
C328        C  0.66659240  0.25908978  0.70674888     0.69800
O329        O  0.66975138  0.23166797  0.72390032    -0.47080
C330        C  0.63267346  0.24036096  0.79368470     0.74510
O331        O  0.69209018  0.22111549  0.76835767    -0.58940
O332        O  0.63776351  0.27190426  0.78822324    -0.49030
O333        O  0.67873679  0.22404069  0.81884093    -0.55370
C334        C  0.68932176  0.30674199  0.80812009     0.84690
O335        O  0.66302243  0.28620981  0.72548662    -0.57260
O336        O  0.64568478  0.21821497  0.78995201    -0.60560
C337        C  0.45490088  0.38839035  0.59993328    -0.09600
C338        C  0.44224738  0.35909458  0.60389894     0.06590
C339        C  0.43095452  0.36122065  0.63530987    -0.03370
C340        C  0.43567918  0.38518294  0.66269097    -0.07820
C341        C  0.44647686  0.41628260  0.65693078     0.05710
C342        C  0.45436923  0.41858224  0.62223712    -0.02840
Br343      Br  0.45997241  0.46137719  0.59758137    -0.02540
H344        H  0.46416866  0.39036326  0.57731810     0.09620
H345        H  0.42812864  0.38234996  0.68727236     0.07640
Br346      Br  0.40464399  0.34859453  0.63852129    -0.02970
C347        C  0.47115205  0.32562828  0.53170868    -0.09600
C348        C  0.45327175  0.34026333  0.54100673     0.06590
C349        C  0.44754368  0.36909969  0.51953454    -0.03370
C350        C  0.45674642  0.37579918  0.48707675    -0.07820
C351        C  0.47294266  0.35717360  0.47665544     0.05710
C352        C  0.48047234  0.33287027  0.50009590    -0.02840
Br353      Br  0.50283223  0.30599716  0.48953191    -0.02540
H354        H  0.47841246  0.30769054  0.54858074     0.09620
H355        H  0.45140118  0.39612288  0.47017064     0.07640
Br356      Br  0.42740003  0.40097271  0.53243285    -0.02970
C357        C  0.31639439  0.26413726  0.39842505    -0.09600
C358        C  0.32983750  0.24451129  0.41646835     0.06590
C359        C  0.34231225  0.22260485  0.39702876    -0.03370
C360        C  0.34147458  0.22173238  0.36007153    -0.07820
C361        C  0.32846822  0.24253802  0.34219246     0.05710
C362        C  0.31551908  0.26321161  0.36176075    -0.02840
Br363      Br  0.29570158  0.28974324  0.34040795    -0.02540
H364        H  0.30637793  0.28036481  0.41295178     0.09620
H365        H  0.35146159  0.20572318  0.34523992     0.07640
Br366      Br  0.36157056  0.19526026  0.41884501    -0.02970
C367        C  0.39310313  0.27472479  0.57776114    -0.09600
C368        C  0.38449389  0.28549939  0.54680150     0.06590
C369        C  0.39467504  0.30778678  0.52430997    -0.03370
C370        C  0.41268193  0.31995514  0.53367832    -0.07820
C371        C  0.42125716  0.31299174  0.56665896     0.05710
C372        C  0.41111529  0.28729259  0.58775733    -0.02840
Br373      Br  0.41957306  0.26639213  0.63117730    -0.02540
H374        H  0.38556311  0.25661843  0.59480631     0.09620
H375        H  0.41996312  0.33303735  0.51287524     0.07640
Br376      Br  0.38558929  0.32034387  0.47842030    -0.02970
C377        C  0.27283016  0.32289072  0.62878004    -0.09600
C378        C  0.26684806  0.35657827  0.61787661     0.06590
C379        C  0.27862663  0.37382607  0.59229871    -0.03370
C380        C  0.29343540  0.35575903  0.57584417    -0.07820
C381        C  0.29857124  0.32230762  0.58661638     0.05710
C382        C  0.28881437  0.30671911  0.61482140    -0.02840
Br383      Br  0.29598711  0.26284854  0.63544057    -0.02540
H384        H  0.26579293  0.30923535  0.65003181     0.09620
H385        H  0.30130074  0.36825746  0.55469740     0.07640
Br386      Br  0.27654411  0.42173128  0.57729428    -0.02970
C387        C  0.06913139  0.39066686  0.63076519    -0.09600
C388        C  0.05530918  0.38915583  0.60368424     0.06590
C389        C  0.04219910  0.36017407  0.60644527    -0.03370
C390        C  0.04259654  0.33780290  0.63574516    -0.07820
C391        C  0.05849282  0.33506355  0.65781554     0.05710
C392        C  0.07194166  0.36341799  0.65489421    -0.02840
Br393      Br  0.09465534  0.37003068  0.68237014    -0.02540
H394        H  0.07884770  0.41281103  0.63238766     0.09620
H395        H  0.03081276  0.31980319  0.63924461     0.07640
Br396      Br  0.02458260  0.34297042  0.57176518    -0.02970
C397        C  0.05661694  0.39869052  0.50768593    -0.09600
C398        C  0.04597134  0.40790222  0.53847894     0.06590
C399        C  0.02592424  0.41194477  0.53281718    -0.03370
C400        C  0.01790463  0.40528422  0.49949327    -0.07820
C401        C  0.02881793  0.39549799  0.46997758     0.05710
C402        C  0.04842564  0.39198943  0.47455083    -0.02840
Br403      Br  0.06525948  0.37870451  0.43660339    -0.02540
H404        H  0.07170882  0.39823967  0.50760800     0.09620
H405        H  0.00279738  0.40872155  0.49650757     0.07640
Br406      Br  0.00737818  0.42572037  0.56819198    -0.02970
C407        C  0.23491483  0.39099679  0.58236240    -0.09600
C408        C  0.23619501  0.39557678  0.61940821     0.06590
C409        C  0.22081122  0.41313005  0.63684974    -0.03370
C410        C  0.20573134  0.42558024  0.61748242    -0.07820
C411        C  0.20508104  0.42146468  0.58079284     0.05710
C412        C  0.21977991  0.40351088  0.56316068    -0.02840
Br413      Br  0.22068720  0.39508907  0.51289099    -0.02540
H414        H  0.24517970  0.37586930  0.56761988     0.09620
H415        H  0.19462090  0.43972882  0.63137800     0.07640
Br416      Br  0.21936933  0.42470180  0.68660951    -0.02970
C417        C  0.16058611  0.02468949  0.36595815    -0.09600
C418        C  0.16648828  0.99491116  0.34646176     0.06590
C419        C  0.17208626  0.46445092  0.36444872    -0.03370
C420        C  0.17134194  0.46422776  0.40099804    -0.07820
C421        C  0.16550061  0.99393669  0.42069089     0.05710
C422        C  0.16013575  0.02459754  0.40285558    -0.02840
Br423      Br  0.15271783  0.06750821  0.42653062    -0.02540
H424        H  0.15649062  0.04835660  0.35247743     0.09620
H425        H  0.17571528  0.44052390  0.41409911     0.07640
Br426      Br  0.18193200  0.42247618  0.34201426    -0.02970
C427        C  0.11075714  0.41720824  0.55112818    -0.09600
C428        C  0.11624169  0.45261804  0.55703774     0.06590
C429        C  0.10320118  0.47528366  0.57337703    -0.03370
C430        C  0.08488583  0.46343112  0.58012324    -0.07820
C431        C  0.07792555  0.42947068  0.56916686     0.05710
C432        C  0.09224310  0.40518081  0.55846444    -0.02840
Br433      Br  0.08809040  0.35493844  0.55456918    -0.02540
H434        H  0.12100608  0.39846805  0.54106334     0.09620
H435        H  0.07641903  0.48190826  0.59503520     0.07640
Br436      Br  0.10890895  0.02294753  0.58838757    -0.02970
C437        C  0.03731836  0.01500802  0.57650878    -0.09600
C438        C  0.03105940  0.01961424  0.61133093     0.06590
C439        C  0.03215020  0.99085988  0.63445560    -0.03370
C440        C  0.03953309  0.95852768  0.62238391    -0.07820
C441        C  0.04618736  0.45370282  0.58717862     0.05710
C442        C  0.04482187  0.48329627  0.56423859    -0.02840
Br443      Br  0.05465566  0.48512854  0.51657609    -0.02540
H444        H  0.03668593  0.03672962  0.55834714     0.09620
H445        H  0.04016046  0.43738500  0.64103147     0.07640
Br446      Br  0.02335286  0.99319834  0.68255013    -0.02970
C447        C  0.04712400  0.25958077  0.63912078    -0.09600
C448        C  0.05068709  0.26833075  0.67517539     0.06590
C449        C  0.04815546  0.23989237  0.69939543    -0.03370
C450        C  0.03998406  0.20778007  0.68851081    -0.07820
C451        C  0.03376960  0.20225940  0.65403415     0.05710
C452        C  0.03778554  0.22816270  0.62891554    -0.02840
Br453      Br  0.03131588  0.22144302  0.58010268    -0.02540
H454        H  0.05146229  0.27690104  0.61822160     0.09620
H455        H  0.03748125  0.18745695  0.70783531     0.07640
Br456      Br  0.05372982  0.24167133  0.74875891    -0.02970
C457        C  0.96979244  0.10059553  0.47713311    -0.09600
C458        C  0.95070608  0.08913123  0.47662130     0.06590
C459        C  0.94273990  0.08053258  0.51053357    -0.03370
C460        C  0.95239655  0.08983399  0.54174938    -0.07820
C461        C  0.97076063  0.10406797  0.54120944     0.05710
C462        C  0.97961242  0.10863942  0.50811283    -0.02840
Br463      Br  0.00509433  0.12599010  0.50192835    -0.02540
H464        H  0.97712523  0.10536551  0.45281338     0.09620
H465        H  0.94593259  0.08352096  0.56694121     0.07640
Br466      Br  0.92162883  0.04934519  0.51964560    -0.02970
C467        C  0.95179328  0.51668969  0.44316302    -0.09600
C468        C  0.95418590  0.04916844  0.42552437     0.06590
C469        C  0.96888266  0.04988109  0.39938339    -0.03370
C470        C  0.97729556  0.01834250  0.38735703    -0.07820
C471        C  0.97272732  0.48572161  0.40230130     0.05710
C472        C  0.96028010  0.48547102  0.43147988    -0.02840
Br473      Br  0.95493063  0.44393273  0.45828927    -0.02540
H474        H  0.94238905  0.51510048  0.46565470     0.09620
H475        H  0.98816175  0.01953322  0.36705371     0.07640
Br476      Br  0.98229010  0.09146090  0.38508104    -0.02970
C477        C  0.82334873  0.51339422  0.61588979    -0.09600
C478        C  0.83531433  0.49120978  0.59605601     0.06590
C479        C  0.84642799  0.46652072  0.61395567    -0.03370
C480        C  0.84541846  0.46478347  0.65093863    -0.07820
C481        C  0.83360468  0.48744613  0.67055482     0.05710
C482        C  0.82231181  0.51165366  0.65255161    -0.02840
Br483      Br  0.80418130  0.04170505  0.67589144    -0.02540
H484        H  0.81438850  0.03201332  0.60277975     0.09620
H485        H  0.85419615  0.44614204  0.66447177     0.07640
Br486      Br  0.86378838  0.43557935  0.59001731    -0.02970
C487        C  0.88794284  0.07695471  0.46375020    -0.09600
C488        C  0.88307790  0.04232412  0.45322799     0.06590
C489        C  0.89584078  0.02393602  0.43123680    -0.03370
C490        C  0.91374289  0.03840026  0.42426872    -0.07820
C491        C  0.92032385  0.07004700  0.44098903     0.05710
C492        C  0.90606670  0.09117462  0.45727527    -0.02840
Br493      Br  0.91026456  0.13809361  0.47496634    -0.02540
H494        H  0.87787586  0.09270914  0.47865562     0.09620
H495        H  0.92257514  0.02393925  0.40582385     0.07640
Br496      Br  0.88986916  0.47926427  0.40913305    -0.02970
C497        C  0.76583169  0.09711215  0.43334074    -0.09600
C498        C  0.76530013  0.09520407  0.39578005     0.06590
C499        C  0.77993488  0.07507940  0.37881879    -0.03370
C500        C  0.79374757  0.05889793  0.39874592    -0.07820
C501        C  0.79414662  0.06218896  0.43554839     0.05710
C502        C  0.77975630  0.08103337  0.45294696    -0.02840
Br503      Br  0.77804555  0.08716134  0.50345963    -0.02540
H504        H  0.75614895  0.11292846  0.44869313     0.09620
H505        H  0.80462165  0.04400778  0.38498728     0.07640
Br506      Br  0.78383086  0.06932989  0.32864618    -0.02970
C507        C  0.46210313  0.23193545  0.58062338    -0.09600
C508        C  0.47182877  0.23247908  0.61256419     0.06590
C509        C  0.47229052  0.26415915  0.63275603    -0.03370
C510        C  0.46294473  0.29430223  0.62085826    -0.07820
C511        C  0.45278885  0.29397637  0.58871436     0.05710
C512        C  0.45307113  0.26174528  0.56819792    -0.02840
Br513      Br  0.44260761  0.25568815  0.52151042    -0.02540
H514        H  0.46205981  0.20817371  0.56431438     0.09620
H515        H  0.46363842  0.31781781  0.63725535     0.07640
Br516      Br  0.48462496  0.26752571  0.67772335    -0.02970
C517        C  0.47598334  0.98097438  0.66895504    -0.09600
C518        C  0.45656313  0.98166765  0.67871109     0.06590
C519        C  0.44884836  0.01634623  0.68445493    -0.03370
C520        C  0.45875879  0.04629887  0.67327958    -0.07820
C521        C  0.47726196  0.04479754  0.66013543     0.05710
C522        C  0.48612952  0.01156273  0.65907644    -0.02840
Br523      Br  0.51178168  0.00548718  0.64342905    -0.02540
H524        H  0.48315724  0.45590547  0.66730572     0.09620
H525        H  0.45216896  0.07177357  0.67697717     0.07640
Br526      Br  0.42753150  0.02948884  0.71404222    -0.02970
C527        C  0.53807019  0.13323788  0.47734163    -0.09600
C528        C  0.54938509  0.16400715  0.47279513     0.06590
C529        C  0.55040556  0.18775371  0.50268450    -0.03370
C530        C  0.54180319  0.17923989  0.53479935    -0.07820
C531        C  0.53109509  0.14844991  0.53882869     0.05710
C532        C  0.52904150  0.12548620  0.50950474    -0.02840
Br533      Br  0.51450413  0.08257163  0.51176748    -0.02540
H534        H  0.53564990  0.11494245  0.45569937     0.09620
H535        H  0.54312580  0.19763569  0.55690031     0.07640
Br536      Br  0.56374272  0.23226286  0.50435623    -0.02970
C537        C  0.55823834  0.23980141  0.42275255    -0.09600
C538        C  0.54895987  0.20647506  0.42391418     0.06590
C539        C  0.52923320  0.20627648  0.41544109    -0.03370
C540        C  0.52022629  0.23716857  0.40510462    -0.07820
C541        C  0.52982647  0.26962077  0.40370316     0.05710
C542        C  0.54908582  0.27066283  0.41311635    -0.02840
Br543      Br  0.56405961  0.31327397  0.41485332    -0.02540
H544        H  0.57268685  0.24314539  0.43103808     0.09620
H545        H  0.50533823  0.23576097  0.39851088     0.07640
Br546      Br  0.51300292  0.16526864  0.41604523    -0.02970
C547        C  0.74103827  0.17885426  0.40584688    -0.09600
C548        C  0.73937004  0.14185897  0.40146214     0.06590
C549        C  0.72437978  0.12455843  0.42046642    -0.03370
C550        C  0.71121524  0.14420515  0.43982458    -0.07820
C551        C  0.71245605  0.18078421  0.44111088     0.05710
C552        C  0.72785658  0.19802223  0.42531082    -0.02840
Br553      Br  0.73162287  0.24799212  0.42910194    -0.02540
H554        H  0.75163086  0.19412458  0.39221800     0.09620
H555        H  0.69950913  0.13091195  0.45283653     0.07640
Br556      Br  0.72053239  0.07424653  0.42172695    -0.02970
C557        C  0.67990122  0.23537909  0.61260254    -0.09600
C558        C  0.66773097  0.25657359  0.59314871     0.06590
C559        C  0.65554221  0.27992718  0.61160705    -0.03370
C560        C  0.65558967  0.28102283  0.64870401    -0.07820
C561        C  0.66744978  0.25897333  0.66783302     0.05710
C562        C  0.67992297  0.23639368  0.64933210    -0.02840
Br563      Br  0.69820764  0.20741247  0.67218022    -0.02540
H564        H  0.68966235  0.21774979  0.59919860     0.09620
H565        H  0.64600688  0.29857769  0.66265901     0.07640
Br566      Br  0.63815353  0.31017178  0.58833904    -0.02970
C567        C  0.61188993  0.20525381  0.42366032    -0.09600
C568        C  0.61934120  0.20065917  0.45730922     0.06590
C569        C  0.60877144  0.18149285  0.48202180    -0.03370
C570        C  0.59025747  0.17084858  0.47422896    -0.07820
C571        C  0.58141797  0.17889612  0.44179173     0.05710
C572        C  0.59363204  0.19310283  0.41504634    -0.02840
Br573      Br  0.58659251  0.20067710  0.36686384    -0.02540
H574        H  0.62039371  0.21842590  0.40382212     0.09620
H575        H  0.58275539  0.15692641  0.49471067     0.07640
Br576      Br  0.61832237  0.17143152  0.52811589    -0.02970
C577        C  0.52068704  0.48651910  0.37390930    -0.09600
C578        C  0.52465255  0.45562382  0.35450913     0.06590
C579        C  0.53719613  0.45772768  0.32565375    -0.03370
C580        C  0.54621153  0.48955899  0.31807316    -0.07820
C581        C  0.54395837  0.52042825  0.33923352     0.05710
C582        C  0.52973750  0.51883297  0.36637880    -0.02840
Br583      Br  0.51930344  0.05855160  0.39174854    -0.02540
H584        H  0.51028216  0.48557729  0.39504821     0.09620
H585        H  0.55580159  0.48969668  0.29581839     0.07640
Br586      Br  0.54229110  0.41850330  0.29432747    -0.02970
C587        C  0.55186539  0.14748981  0.37350884    -0.09600
C588        C  0.55802351  0.14121543  0.40831421     0.06590
C589        C  0.56445129  0.10635810  0.41451405    -0.03370
C590        C  0.56236991  0.07960630  0.38869937    -0.07820
C591        C  0.55546289  0.08562898  0.35440031     0.05710
C592        C  0.55175653  0.12161808  0.34655279    -0.02840
Br593      Br  0.55042341  0.14172675  0.30016242    -0.02540
H594        H  0.54846485  0.17385760  0.36567836     0.09620
H595        H  0.56656269  0.05335348  0.39553182     0.07640
Br596      Br  0.57618251  0.09140384  0.45732583    -0.02970
C597        C  0.98268847  0.26460186  0.35412156    -0.09600
C598        C  0.97304546  0.29685166  0.35400825     0.06590
C599        C  0.95355689  0.29585517  0.34627055    -0.03370
C600        C  0.94445557  0.26388129  0.33826268    -0.07820
C601        C  0.95359202  0.23067560  0.33923328     0.05710
C602        C  0.97342353  0.23217370  0.34651554    -0.02840
Br603      Br  0.98930028  0.19139622  0.34494060    -0.02540
H604        H  0.99773487  0.26458888  0.35939414     0.09620
H605        H  0.93009970  0.26639278  0.32955075     0.07640
Br606      Br  0.93783391  0.33699691  0.34560975    -0.02970
C607        C  0.93398687  0.10722921  0.37897843    -0.09600
C608        C  0.94234812  0.11335143  0.41250045     0.06590
C609        C  0.94922882  0.14875222  0.41839650    -0.03370
C610        C  0.95054915  0.17258960  0.39025342    -0.07820
C611        C  0.94265857  0.16596072  0.35648633     0.05710
C612        C  0.93252961  0.13334475  0.35309104    -0.02840
Br613      Br  0.91707015  0.12037677  0.31312336    -0.02540
H614        H  0.92778121  0.08168199  0.37294985     0.09620
H615        H  0.95638065  0.19827087  0.39656162     0.07640
Br616      Br  0.95456799  0.17183704  0.46310368    -0.02970
C617        C  0.10664768  0.28729088  0.73660073    -0.09600
C618        C  0.11708832  0.27269457  0.70879015     0.06590
C619        C  0.10902160  0.27033944  0.67523254    -0.03370
C620        C  0.09071556  0.28297653  0.67001012    -0.07820
C621        C  0.07929286  0.29684439  0.69805990     0.05710
C622        C  0.08798915  0.29848711  0.73246549    -0.02840
Br623      Br  0.07742904  0.31240235  0.77757357    -0.02540
H624        H  0.11308223  0.28897573  0.76253345     0.09620
H625        H  0.08516169  0.28142823  0.64344139     0.07640
Br626      Br  0.12273017  0.25132075  0.63550841    -0.02970
C627        C  0.21340787  0.30495857  0.65974129    -0.09600
C628        C  0.21000136  0.31021728  0.69572538     0.06590
C629        C  0.22206663  0.33265275  0.71534855    -0.03370
C630        C  0.23640945  0.35123135  0.69808281    -0.07820
C631        C  0.23893835  0.34875599  0.66097114     0.05710
C632        C  0.22765230  0.32318907  0.64236570    -0.02840
Br633      Br  0.22986751  0.31069037  0.59312407    -0.02540
H634        H  0.20486431  0.28621947  0.64470791     0.09620
H635        H  0.24426073  0.37005530  0.71399768     0.07640
Br636      Br  0.21892998  0.34181326  0.76512517    -0.02970
C637        C  0.41420308  0.46726593  0.66728441    -0.09600
C638        C  0.42469533  0.45098654  0.69424462     0.06590
C639        C  0.41406780  0.43881607  0.72417296    -0.03370
C640        C  0.39549944  0.44997770  0.72951834    -0.07820
C641        C  0.38633114  0.47096971  0.70513918     0.05710
C642        C  0.39545420  0.47809919  0.67285730    -0.02840
Br643      Br  0.38310875  0.00255615  0.63566835    -0.02540
H644        H  0.42112077  0.97398093  0.64264894     0.09620
H645        H  0.38802556  0.44185663  0.75318077     0.07640
Br646      Br  0.42133637  0.40273808  0.75667644    -0.02970
C647        C  0.28333673  0.45226458  0.67455552    -0.09600
C648        C  0.29642957  0.43305817  0.69329584     0.06590
C649        C  0.29272312  0.39798792  0.70117850    -0.03370
C650        C  0.27667080  0.38173979  0.68719322    -0.07820
C651        C  0.26386239  0.39971825  0.66502035     0.05710
C652        C  0.26702864  0.43672354  0.66103781    -0.02840
Br653      Br  0.25182151  0.47041653  0.63743198    -0.02540
H654        H  0.28588017  0.48015939  0.67046809     0.09620
H655        H  0.27492389  0.35388243  0.69188523     0.07640
Br656      Br  0.30999212  0.37035356  0.72771358    -0.02970
C657        C  0.78476172  0.16704614  0.30477561    -0.09600
C658        C  0.79821506  0.18295660  0.32689710     0.06590
C659        C  0.79637099  0.17958505  0.36354584    -0.03370
C660        C  0.78090698  0.16136951  0.37717846    -0.07820
C661        C  0.76688691  0.14508480  0.35543433     0.05710
C662        C  0.76936222  0.14816694  0.31790163    -0.02840
Br663      Br  0.75523473  0.12596681  0.27987303    -0.02540
H664        H  0.78612693  0.16960020  0.27638844     0.09620
H665        H  0.77996688  0.15932319  0.40563894     0.07640
Br666      Br  0.81434050  0.19864888  0.39680507    -0.02970
C667        C  0.89093165  0.23012605  0.33817973    -0.09600
C668        C  0.88448354  0.22869398  0.30341382     0.06590
C669        C  0.89581494  0.21292402  0.27721182    -0.03370
C670        C  0.91360337  0.20016600  0.28563777    -0.07820
C671        C  0.92135433  0.20385242  0.32007190     0.05710
C672        C  0.90882695  0.21730526  0.34699905    -0.02840
Br673      Br  0.91526114  0.22324425  0.39597694    -0.02540
H674        H  0.88189012  0.24109804  0.35874345     0.09620
H675        H  0.92112341  0.18717444  0.26433745     0.07640
Br676      Br  0.88813234  0.20983688  0.22859711    -0.02970
C677        C  0.70858014  0.10381513  0.31550878    -0.09600
C678        C  0.71002506  0.06781381  0.30918414     0.06590
C679        C  0.72580411  0.04969163  0.32077868    -0.03370
C680        C  0.73871524  0.06640265  0.34285899    -0.07820
C681        C  0.73808403  0.10301689  0.34946659     0.05710
C682        C  0.72280997  0.12198441  0.33382437    -0.02840
Br683      Br  0.72069692  0.17252000  0.33284452    -0.02540
H684        H  0.69654632  0.11793115  0.30548879     0.09620
H685        H  0.74905736  0.04990583  0.35472619     0.07640
Br686      Br  0.73087947  0.50251147  0.30565509    -0.02970
C687        C  0.58894431  0.07176317  0.30838412    -0.09600
C688        C  0.57731906  0.04569581  0.32407582     0.06590
C689        C  0.58673901  0.51534319  0.33703817    -0.03370
C690        C  0.60517646  0.50803678  0.32565206    -0.07820
C691        C  0.61558546  0.03195859  0.30534323     0.05710
C692        C  0.60776217  0.06523736  0.29891153    -0.02840
Br693      Br  0.62105282  0.10178931  0.27414160    -0.02540
H694        H  0.58293525  0.09656499  0.30088807     0.09620
H695        H  0.61177438  0.48389030  0.33388823     0.07640
Br696      Br  0.57793184  0.48528950  0.37448970    -0.02970
C697        C  0.54499173  0.06686883  0.22634649    -0.09600
C698        C  0.52661508  0.08004230  0.22815643     0.06590
C699        C  0.51744965  0.08152643  0.26127063    -0.03370
C700        C  0.52727027  0.07265360  0.29184256    -0.07820
C701        C  0.54640042  0.06172183  0.29096801     0.05710
C702        C  0.55447812  0.05565492  0.25645013    -0.02840
Br703      Br  0.57584241  0.02643401  0.24445382    -0.02540
H704        H  0.55163823  0.06314401  0.20066436     0.09620
H705        H  0.52000839  0.07551009  0.31692916     0.07640
Br706      Br  0.49189902  0.09717336  0.26714518    -0.02970
C707        C  0.53518384  0.12098129  0.97643597    -0.09600
C708        C  0.55157535  0.10007976  0.97459186     0.06590
C709        C  0.56112736  0.09715918  0.00796078    -0.03370
C710        C  0.55107192  0.10205363  0.03966521    -0.07820
C711        C  0.53273132  0.11546023  0.04021486     0.05710
C712        C  0.52540354  0.12764737  0.00820093    -0.02840
Br713      Br  0.50244067  0.15404282  0.00552429    -0.02540
H714        H  0.52986312  0.13276043  0.95280909     0.09620
H715        H  0.55804819  0.09673314  0.06439110     0.07640
Br716      Br  0.58812479  0.09732701  0.01602827    -0.02970
C717        C  0.67672844  0.53082931  0.10666178    -0.09600
C718        C  0.66624740  0.50615456  0.08666392     0.06590
C719        C  0.65620071  0.47921795  0.10450568    -0.03370
C720        C  0.65646578  0.47826069  0.14155441    -0.07820
C721        C  0.66662443  0.50360189  0.16136272     0.05710
C722        C  0.67723546  0.02962305  0.14336457    -0.02840
Br723      Br  0.69378905  0.06310962  0.16664511    -0.02540
H724        H  0.68502805  0.05107955  0.09360824     0.09620
H725        H  0.64846485  0.45789779  0.15495243     0.07640
Br726      Br  0.64151670  0.44341383  0.08052267    -0.02970
C727        C  0.60089387  0.02630343  0.96418047    -0.09600
C728        C  0.61634614  0.04390453  0.94933029     0.06590
C729        C  0.61313990  0.07320397  0.92802166    -0.03370
C730        C  0.59471673  0.08548041  0.92317308    -0.07820
C731        C  0.57900202  0.07048268  0.94108094     0.05710
C732        C  0.58251996  0.03917022  0.96091815    -0.02840
Br733      Br  0.56351809  0.01351226  0.98736470    -0.02540
H734        H  0.60323159  0.50354617  0.98046699     0.09620
H735        H  0.59308281  0.10725221  0.90557224     0.07640
Br736      Br  0.63350606  0.09680974  0.90397359    -0.02970
C737        C  0.72108462  0.09697188  0.94050119    -0.09600
C738        C  0.70726168  0.07748903  0.92221414     0.06590
C739        C  0.70814432  0.07611403  0.88512036    -0.03370
C740        C  0.72337551  0.09153748  0.86762450    -0.07820
C741        C  0.73817327  0.11014432  0.88531992     0.05710
C742        C  0.73574897  0.11478976  0.92289146    -0.02840
Br743      Br  0.74794114  0.14928207  0.95334021    -0.02540
H744        H  0.71998852  0.09970482  0.96899254     0.09620
H745        H  0.72343824  0.08971469  0.83905105     0.07640
Br746      Br  0.68858457  0.05611829  0.85568842    -0.02970
C747        C  0.72841138  0.17740732  0.86265988    -0.09600
C748        C  0.73929341  0.15465168  0.84056217     0.06590
C749        C  0.73363646  0.15119286  0.80435951    -0.03370
C750        C  0.71844867  0.17078456  0.79224223    -0.07820
C751        C  0.70774748  0.19212913  0.81502050     0.05710
C752        C  0.71284176  0.19541205  0.85065716    -0.02840
Br753      Br  0.69964208  0.22436819  0.88479202    -0.02540
H754        H  0.73189601  0.18057654  0.89031016     0.09620
H755        H  0.71437965  0.16812884  0.76475144     0.07640
Br756      Br  0.74280195  0.11830823  0.76908528    -0.02970
C757        C  0.76091317  0.06697069  0.83668697    -0.09600
C758        C  0.76421129  0.10397977  0.83611838     0.06590
C759        C  0.77977286  0.11554452  0.81446688    -0.03370
C760        C  0.79193868  0.09131132  0.79864370    -0.07820
C761        C  0.78824604  0.05536834  0.79993163     0.05710
C762        C  0.77159120  0.04346709  0.81631774    -0.02840
Br763      Br  0.76254660  0.49563675  0.81224167    -0.02540
H764        H  0.75025780  0.05493479  0.85297410     0.09620
H765        H  0.80442914  0.10067975  0.78471031     0.07640
Br766      Br  0.78587833  0.16292095  0.80215794    -0.02970
C767        C  0.96744681  0.14561919  0.24566855    -0.09600
C768        C  0.96841115  0.17246439  0.22116058     0.06590
C769        C  0.96209927  0.20608579  0.23140781    -0.03370
C770        C  0.95450719  0.21169726  0.26528427    -0.07820
C771        C  0.95304928  0.18471081  0.29099012     0.05710
C772        C  0.96074222  0.15126922  0.28020686    -0.02840
Br773      Br  0.96557819  0.11109936  0.30795081    -0.02540
H774        H  0.97307908  0.12003195  0.23826064     0.09620
H775        H  0.94903355  0.23766759  0.27116488     0.07640
Br776      Br  0.96255675  0.24522795  0.19992130    -0.02970
C777        C  0.96966879  0.14393730  0.96814405    -0.09600
C778        C  0.95135023  0.15851626  0.96705350     0.06590
C779        C  0.94093109  0.15566428  0.99966581    -0.03370
C780        C  0.95056649  0.15266260  0.03172914    -0.07820
C781        C  0.97006862  0.14685436  0.03247157     0.05710
C782        C  0.97931486  0.13963753  0.00001745    -0.02840
Br783      Br  0.00480876  0.12278275  0.99694374    -0.02540
H784        H  0.97693487  0.13696584  0.94376960     0.09620
H785        H  0.94255995  0.15331156  0.05625325     0.07640
Br786      Br  0.91438613  0.14376849  0.00371631    -0.02970
C787        C  0.78032060  0.12877110  0.90283648    -0.09600
C788        C  0.76846186  0.14993766  0.88186968     0.06590
C789        C  0.77314867  0.18684148  0.88017260    -0.03370
C790        C  0.78788528  0.20058159  0.90058131    -0.07820
C791        C  0.79848772  0.17957123  0.92271903     0.05710
C792        C  0.79478662  0.14330136  0.92370502    -0.02840
Br793      Br  0.80922371  0.11250904  0.95248473    -0.02540
H794        H  0.77776583  0.10060776  0.90399094     0.09620
H795        H  0.79112931  0.22852550  0.89921533     0.07640
Br796      Br  0.76330004  0.22171507  0.84861237    -0.02970
C797        C  0.82615461  0.22653265  0.15316791    -0.09600
C798        C  0.83274446  0.25789609  0.16937324     0.06590
C799        C  0.84006557  0.28486463  0.14785349    -0.03370
C800        C  0.84051202  0.27994113  0.11104865    -0.07820
C801        C  0.83378339  0.24851694  0.09497692     0.05710
C802        C  0.82657703  0.22154978  0.11668379    -0.02840
Br803      Br  0.81685311  0.17698995  0.09935358    -0.02540
H804        H  0.82055390  0.20527466  0.16901681     0.09620
H805        H  0.84604031  0.30103391  0.09490536     0.07640
Br806      Br  0.84938851  0.32903342  0.16649435    -0.02970
C807        C  0.92041304  0.21397535  0.96201334    -0.09600
C808        C  0.92270429  0.18540234  0.93742495     0.06590
C809        C  0.90580078  0.17215839  0.92078144    -0.03370
C810        C  0.88809822  0.18505816  0.93146790    -0.07820
C811        C  0.88635342  0.21258327  0.95625852     0.05710
C812        C  0.90270348  0.22764584  0.97101351    -0.02840
Br813      Br  0.90158172  0.26500941  0.00574462    -0.02540
H814        H  0.93270530  0.22551417  0.97488969     0.09620
H815        H  0.87541469  0.17426621  0.91925473     0.07640
Br816      Br  0.90416785  0.14153351  0.87992970    -0.02970
C817        C  0.47618907  0.39632642  0.75941630    -0.09600
C818        C  0.47274871  0.41764356  0.78947549     0.06590
C819        C  0.46235647  0.44874373  0.78502199    -0.03370
C820        C  0.45492617  0.45655205  0.75199232    -0.07820
C821        C  0.45681098  0.43401509  0.72195243     0.05710
C822        C  0.46896748  0.40442863  0.72591631    -0.02840
Br823      Br  0.47906713  0.37576136  0.68806364    -0.02540
H824        H  0.48504819  0.37337087  0.76177442     0.09620
H825        H  0.44671199  0.48013349  0.75035844     0.07640
Br826      Br  0.45735155  0.48237421  0.82243032    -0.02970
C827        C  0.51775732  0.51397837  0.92180596    -0.09600
C828        C  0.52781915  0.48606234  0.90630052     0.06590
C829        C  0.54659679  0.49255543  0.89556879    -0.03370
C830        C  0.55505999  0.52544438  0.90274151    -0.07820
C831        C  0.54602727  0.05240779  0.92339331     0.05710
C832        C  0.52605248  0.04724972  0.92799330    -0.02840
Br833      Br  0.50725353  0.08326924  0.92879165    -0.02540
H834        H  0.50270996  0.51069958  0.92668745     0.09620
H835        H  0.56935202  0.52915365  0.89297949     0.07640
Br836      Br  0.56203545  0.45749813  0.87263005    -0.02970
C837        C  0.43749857  0.39699080  0.01452944    -0.09600
C838        C  0.44838574  0.40170708  0.04577623     0.06590
C839        C  0.46748114  0.38977722  0.04347455    -0.03370
C840        C  0.47567578  0.38154843  0.01063575    -0.07820
C841        C  0.46552347  0.38394988  0.97912233     0.05710
C842        C  0.44589037  0.38975339  0.98152634    -0.02840
Br843      Br  0.42969324  0.39044454  0.94099466    -0.02540
H844        H  0.42234999  0.40038142  0.01478062     0.09620
H845        H  0.49060848  0.37537553  0.00966181     0.07640
Br846      Br  0.48479788  0.38892572  0.08216979    -0.02970
C847        C  0.46556467  0.46758391  0.06869662    -0.09600
C848        C  0.45070955  0.45457120  0.09050827     0.06590
C849        C  0.44443712  0.97799518  0.11823695    -0.03370
C850        C  0.45443024  0.00927977  0.12592767    -0.07820
C851        C  0.47043547  0.01905901  0.10636306     0.05710
C852        C  0.47555181  0.99850889  0.07669192    -0.02840
Br853      Br  0.49514080  0.01236844  0.04399229    -0.02540
H854        H  0.46944343  0.45491337  0.04413009     0.09620
H855        H  0.44996682  0.02556826  0.14819330     0.07640
Br856      Br  0.42357626  0.96853661  0.14963277    -0.02970
C857        C  0.35093701  0.02707335  0.89692863    -0.09600
C858        C  0.33393637  0.01988336  0.91494707     0.06590
C859        C  0.31704553  0.01559412  0.89578706    -0.03370
C860        C  0.31750350  0.01672693  0.85907713    -0.07820
C861        C  0.33458810  0.02202606  0.84079455     0.05710
C862        C  0.35141450  0.02779658  0.85990322    -0.02840
Br863      Br  0.37556790  0.03220426  0.83683335    -0.02540
H864        H  0.36401334  0.02999602  0.91152141     0.09620
H865        H  0.30446549  0.01243097  0.84462028     0.07640
Br866      Br  0.29290384  0.00814268  0.91834936    -0.02970
C867        C  0.38454608  0.43862163  0.07641631    -0.09600
C868        C  0.38447827  0.46536876  0.05143945     0.06590
C869        C  0.40161566  0.47653198  0.03672018    -0.03370
C870        C  0.41842675  0.46057133  0.04659730    -0.07820
C871        C  0.41921288  0.43332410  0.07211407     0.05710
C872        C  0.40142415  0.42319253  0.08778272    -0.02840
Br873      Br  0.39732635  0.39245866  0.12705621    -0.02540
H874        H  0.37119224  0.43034978  0.08806908     0.09620
H875        H  0.43125614  0.46944918  0.03356830     0.07640
Br876      Br  0.40267246  0.01201898  0.00117752    -0.02970
C877        C  0.27790975  0.38392411  0.08053792    -0.09600
C878        C  0.26702497  0.40219251  0.10669849     0.06590
C879        C  0.27240894  0.43800123  0.11413135    -0.03370
C880        C  0.28780105  0.45288617  0.09688061    -0.07820
C881        C  0.29809857  0.43422082  0.07153093     0.05710
C882        C  0.29292592  0.39969749  0.06263346    -0.02840
Br883      Br  0.30649848  0.37231181  0.02794924    -0.02540
H884        H  0.27483632  0.35672842  0.07377706     0.09620
H885        H  0.29154296  0.48018534  0.10269404     0.07640
Br886      Br  0.26082974  0.47155694  0.14548524    -0.02970
C887        C  0.27350383  0.32483500  0.13579153    -0.09600
C888        C  0.26751003  0.35736852  0.15107969     0.06590
C889        C  0.27835354  0.37061261  0.18035576    -0.03370
C890        C  0.29259073  0.35022013  0.19473034    -0.07820
C891        C  0.29786436  0.31814983  0.17930167     0.05710
C892        C  0.28866728  0.30611524  0.14862156    -0.02840
Br893      Br  0.29584432  0.26454157  0.12216288    -0.02540
H894        H  0.26688622  0.31388972  0.11236427     0.09620
H895        H  0.29991402  0.35985365  0.21811200     0.07640
Br896      Br  0.27583732  0.41549481  0.20386902    -0.02970
C897        C  0.21022935  0.43835421  0.15167591    -0.09600
C898        C  0.20682075  0.43089883  0.18712394     0.06590
C899        C  0.21876253  0.40733601  0.20429708    -0.03370
C900        C  0.23418608  0.39299127  0.18616909    -0.07820
C901        C  0.23834209  0.40108042  0.15063980     0.05710
C902        C  0.22543987  0.42388370  0.13328884    -0.02840
Br903      Br  0.22764056  0.44019237  0.08543096    -0.02540
H904        H  0.20126390  0.45669702  0.13813807     0.09620
H905        H  0.24255864  0.37435013  0.20024140     0.07640
Br906      Br  0.21458930  0.39201676  0.25189566    -0.02970
C907        C  0.01858548  0.32128117  0.75843416    -0.09600
C908        C  0.02680557  0.34801063  0.77939872     0.06590
C909        C  0.04241714  0.36656090  0.76537548    -0.03370
C910        C  0.05122763  0.35414496  0.73426584    -0.07820
C911        C  0.04548220  0.32235637  0.71719467     0.05710
C912        C  0.02696575  0.30990985  0.72667706    -0.02840
Br913      Br  0.00996819  0.28344468  0.69642161    -0.02540
H914        H  0.00527797  0.30934491  0.76649246     0.09620
H915        H  0.06379467  0.36779959  0.72570764     0.07640
Br916      Br  0.05302035  0.40792737  0.78780502    -0.02970
C917        C  0.95671861  0.26775531  0.89513160    -0.09600
C918        C  0.97600154  0.27070929  0.90240378     0.06590
C919        C  0.98514419  0.24158412  0.91663449    -0.03370
C920        C  0.97472189  0.21143150  0.92549520    -0.07820
C921        C  0.95495168  0.20760966  0.91932121     0.05710
C922        C  0.94648821  0.23664332  0.90121134    -0.02840
Br923      Br  0.92274559  0.23557095  0.87630850    -0.02540
H924        H  0.94973375  0.28925798  0.88218249     0.09620
H925        H  0.98313257  0.19098314  0.93567609     0.07640
Br926      Br  0.01200444  0.24034508  0.92451788    -0.02970
C927        C  0.04628037  0.38097658  0.98595695    -0.09600
C928        C  0.03033968  0.36127867  0.97575274     0.06590
C929        C  0.02327361  0.33549313  0.99852010    -0.03370
C930        C  0.03297561  0.32765376  0.02920002    -0.07820
C931        C  0.04984327  0.34561228  0.03957779     0.05710
C932        C  0.05544592  0.37475815  0.01812332    -0.02840
Br933      Br  0.07600867  0.40661386  0.02894166    -0.02540
H934        H  0.05145611  0.40176831  0.96904296     0.09620
H935        H  0.02649153  0.30765227  0.04530065     0.07640
Br936      Br  0.00052471  0.30894018  0.98893483    -0.02970
C937        C  0.04383372  0.23630504  0.08200950    -0.09600
C938        C  0.03354259  0.23676602  0.11343269     0.06590
C939        C  0.03298826  0.26804752  0.13384842    -0.03370
C940        C  0.04243515  0.29846455  0.12217180    -0.07820
C941        C  0.05163149  0.29953418  0.08879055     0.05710
C942        C  0.05236162  0.26682206  0.06905521    -0.02840
Br943      Br  0.06246473  0.26059007  0.02201960    -0.02540
H944        H  0.04405590  0.21237699  0.06593296     0.09620
H945        H  0.04222463  0.32125041  0.13957313     0.07640
Br946      Br  0.01971123  0.27045827  0.17820885    -0.02970
C947        C  0.21396999  0.31176143  0.10560825    -0.09600
C948        C  0.20999114  0.32024620  0.07074796     0.06590
C949        C  0.22166022  0.34459642  0.05322647    -0.03370
C950        C  0.23657492  0.36084150  0.07126659    -0.07820
C951        C  0.23997530  0.35469217  0.10744253     0.05710
C952        C  0.22865446  0.32807993  0.12395808    -0.02840
Br953      Br  0.23194142  0.31021530  0.17087782    -0.02540
H954        H  0.20565267  0.29170350  0.11884892     0.09620
H955        H  0.24454218  0.38031861  0.05687139     0.07640
Br956      Br  0.21731578  0.35932671  0.00566563    -0.02970
C957        C  0.16559141  0.20822918  0.86226706    -0.09600
C958        C  0.16151745  0.23884844  0.84361863     0.06590
C959        C  0.15664084  0.26992368  0.86242485    -0.03370
C960        C  0.15722875  0.27054649  0.89911599    -0.07820
C961        C  0.16244206  0.24066863  0.91773290     0.05710
C962        C  0.16617844  0.20895677  0.89922431    -0.02840
Br963      Br  0.17427876  0.16731962  0.92259757    -0.02540
H964        H  0.16944912  0.18430031  0.84807977     0.09620
H965        H  0.15399175  0.29487254  0.91323195     0.07640
Br966      Br  0.14908008  0.31257785  0.83992969    -0.02970
C967        C  0.08979874  0.32447279  0.03185537    -0.09600
C968        C  0.08189857  0.32391696  0.06643216     0.06590
C969        C  0.09365701  0.30960249  0.09329713    -0.03370
C970        C  0.11143038  0.29530729  0.08483443    -0.07820
C971        C  0.11856973  0.29571720  0.05032683     0.05710
C972        C  0.10770621  0.31107819  0.02389568    -0.02840
Br973      Br  0.11573594  0.31131757  0.97523757    -0.02540
H974        H  0.08177240  0.33275586  0.00953417     0.09620
H975        H  0.11989370  0.28420364  0.10556822     0.07640
Br976      Br  0.08686431  0.30814872  0.14256985    -0.02970
C977        C  0.95432214  0.11476856  0.84552190    -0.09600
C978        C  0.94612945  0.08173288  0.85377138     0.06590
C979        C  0.94073582  0.07833947  0.89013298    -0.03370
C980        C  0.93991028  0.10803932  0.91287697    -0.07820
C981        C  0.94556313  0.14232530  0.90255669     0.05710
C982        C  0.95374019  0.14450384  0.86791999    -0.02840
Br983      Br  0.96445323  0.18509798  0.84491879    -0.02540
H984        H  0.96226347  0.11816675  0.82153551     0.09620
H985        H  0.93434376  0.10415764  0.93924468     0.07640
Br986      Br  0.93376185  0.03468209  0.91229933    -0.02970
C987        C  0.98212373  0.48894727  0.86541246    -0.09360
C988        C  0.97272353  0.45621885  0.86469383     0.06590
C989        C  0.95347296  0.45508199  0.85510127    -0.03370
C990        C  0.94466002  0.48544071  0.84346646    -0.07820
C991        C  0.95440305  0.51818713  0.84079182     0.05710
C992        C  0.97335228  0.51962101  0.85387189    -0.02840
Br993      Br  0.98952114  0.56067871  0.85233742    -0.02540
H994        H  0.99683252  0.49048101  0.87323370     0.09620
H995        H  0.92998682  0.48246974  0.83634529     0.07640
Br996      Br  0.93791922  0.41320313  0.85684449    -0.02970
C997        C  0.97786329  0.05660700  0.74057808    -0.09600
C998        C  0.97135586  0.08717064  0.72484650     0.06590
C999        C  0.95593448  0.10474275  0.74042186    -0.03370
C1000       C  0.94731141  0.09117344  0.77096505    -0.07820
C1001       C  0.95456706  0.06156915  0.78889675     0.05710
C1002       C  0.96954696  0.04284652  0.77094977    -0.02840
Br1003     Br  0.97660441  0.49407340  0.77633497    -0.02540
H1004       H  0.98919819  0.04195566  0.72789375     0.09620
H1005       H  0.93518141  0.10487651  0.78192309     0.07640
Br1006     Br  0.94582997  0.14684137  0.72100082    -0.02970
C1007       C  0.89897374  0.00796180  0.78138021    -0.09600
C1008       C  0.88534314  0.01392809  0.80735808     0.06590
C1009       C  0.89019466  0.03471864  0.83691058    -0.03370
C1010       C  0.90841885  0.04932207  0.83976105    -0.07820
C1011       C  0.92317072  0.04173704  0.81516097     0.05710
C1012       C  0.91742238  0.02133924  0.78438686    -0.02840
Br1013     Br  0.93192918  0.01017270  0.74263247    -0.02540
H1014       H  0.89502484  0.99315246  0.75774777     0.09620
H1015       H  0.91056309  0.06607635  0.86233036     0.07640
Br1016     Br  0.87301862  0.04142756  0.87597326    -0.02970
C1017       C  0.56250896  0.17719848  0.89057295    -0.09600
C1018       C  0.55296519  0.17192069  0.85808150     0.06590
C1019       C  0.54435179  0.13784687  0.85300222    -0.03370
C1020       C  0.54732467  0.11098175  0.87733314    -0.07820
C1021       C  0.55736012  0.11595123  0.90932803     0.05710
C1022       C  0.56489869  0.15048936  0.91536687    -0.02840
Br1023     Br  0.57931211  0.16433608  0.95617107    -0.02540
H1024       H  0.56895851  0.20266246  0.89628039     0.09620
H1025       H  0.54089283  0.08588101  0.87072353     0.07640
Br1026     Br  0.52585125  0.12388129  0.81794668    -0.02970
C1027       C  0.55487513  0.26563635  0.86314274    -0.09600
C1028       C  0.54403069  0.23543020  0.85307181     0.06590
C1029       C  0.52502262  0.23489432  0.86615843    -0.03370
C1030       C  0.51650532  0.26628798  0.87817883    -0.07820
C1031       C  0.52666767  0.29825535  0.87964489     0.05710
C1032       C  0.54645205  0.29690134  0.87505452    -0.02840
Br1033     Br  0.56306788  0.33647873  0.88384652    -0.02540
H1034       H  0.57010059  0.26599088  0.86096957     0.09620
H1035       H  0.50151102  0.26598586  0.88435438     0.07640
Br1036     Br  0.50857752  0.19447229  0.86453727    -0.02970
C1037       C  0.55292583  0.16806607  0.77426024    -0.09600
C1038       C  0.54385355  0.19467741  0.79512340     0.06590
C1039       C  0.52784297  0.21106322  0.77910184    -0.03370
C1040       C  0.52033625  0.19713336  0.74765614    -0.07820
C1041       C  0.52878513  0.16930924  0.72901503     0.05710
C1042       C  0.54567972  0.15551174  0.74196999    -0.02840
Br1043     Br  0.55872726  0.11750548  0.71864087    -0.02540
H1044       H  0.56540073  0.15531983  0.78415042     0.09620
H1045       H  0.50796481  0.20939391  0.73660101     0.07640
Br1046     Br  0.51577247  0.25484420  0.79174575    -0.02970
C1047       C  0.58963449  0.19092021  0.82949402    -0.09600
C1048       C  0.57445465  0.21340920  0.82091098     0.06590
C1049       C  0.57934546  0.24306373  0.79959599    -0.03370
C1050       C  0.59826214  0.25150838  0.79224451    -0.07820
C1051       C  0.61299545  0.23012021  0.80300343     0.05710
C1052       C  0.60847884  0.19896344  0.82104428    -0.02840
Br1053     Br  0.62724679  0.16612205  0.83573849    -0.02540
H1054       H  0.58717275  0.16596350  0.84203531     0.09620
H1055       H  0.60147333  0.27480456  0.77705125     0.07640
Br1056     Br  0.56173143  0.27474935  0.77917578    -0.02970
C1057       C  0.03141110  0.03318011  0.12483885    -0.09600
C1058       C  0.02462802  0.05505464  0.15219670     0.06590
C1059       C  0.02692516  0.04420150  0.18710612    -0.03370
C1060       C  0.03627464  0.01279802  0.19409632    -0.07820
C1061       C  0.04431228  0.99083385  0.16719205     0.05710
C1062       C  0.04156156  0.00222352  0.13154807    -0.02840
Br1063     Br  0.05352165  0.98285216  0.08987080    -0.02540
H1064       H  0.02989012  0.04155989  0.09778518     0.09620
H1065       H  0.03755158  0.00667205  0.22154257     0.07640
Br1066     Br  0.01721917  0.07075137  0.22684543    -0.02970
C1067       C  0.04156854  0.41346761  0.13350349    -0.09600
C1068       C  0.05807865  0.42887331  0.14814567     0.06590
C1069       C  0.07527753  0.41701306  0.13132600    -0.03370
C1070       C  0.07565657  0.38586555  0.11090851    -0.07820
C1071       C  0.05918108  0.36722077  0.10052709     0.05710
C1072       C  0.04176306  0.38321738  0.11128300    -0.02840
Br1073     Br  0.01708863  0.36655937  0.09747336    -0.02540
H1074       H  0.02816404  0.42643876  0.13756870     0.09620
H1075       H  0.08925139  0.37861616  0.10005453     0.07640
Br1076     Br  0.09768890  0.44544812  0.12251801    -0.02970
C1077       C  0.03081534  0.42097260  0.21333711    -0.09600
C1078       C  0.04718571  0.44316321  0.21435078     0.06590
C1079       C  0.05307162  0.45336006  0.24982267    -0.03370
C1080       C  0.04452281  0.43863780  0.27978170    -0.07820
C1081       C  0.02862977  0.41674794  0.27745864     0.05710
C1082       C  0.02167932  0.40819158  0.24371967    -0.02840
Br1083     Br  0.99974705  0.37849265  0.23715242    -0.02540
H1084       H  0.02398484  0.41349065  0.18925439     0.09620
H1085       H  0.04943114  0.44688234  0.30575739     0.07640
Br1086     Br  0.06958387  0.49228037  0.26333035    -0.02970
C1087       C  0.08821070  0.44239002  0.20364527    -0.09600
C1088       C  0.07729269  0.46941613  0.18845910     0.06590
C1089       C  0.08656321  0.50299061  0.18393512    -0.03370
C1090       C  0.10537398  0.50779469  0.19471474    -0.07820
C1091       C  0.11574349  0.48061197  0.20945629     0.05710
C1092       C  0.10689661  0.44757539  0.21411394    -0.02840
Br1093     Br  0.11890813  0.40813981  0.23558066    -0.02540
H1094       H  0.08197219  0.41649241  0.20738742     0.09620
H1095       H  0.11217723  0.03318145  0.19087063     0.07640
Br1096     Br  0.07670704  0.04441823  0.16256682    -0.02970
C1097       C  0.47603227  0.23120636  0.13200565    -0.09600
C1098       C  0.47587454  0.20339208  0.15561929     0.06590
C1099       C  0.46651738  0.20741529  0.18799910    -0.03370
C1100       C  0.45643940  0.23802814  0.19539169    -0.07820
C1101       C  0.45554350  0.26651119  0.17155352     0.05710
C1102       C  0.46694881  0.26316327  0.14013862    -0.02840
Br1103     Br  0.47413255  0.30000544  0.10854141    -0.02540
H1104       H  0.48410049  0.22855991  0.10765298     0.09620
H1105       H  0.44893158  0.23931364  0.22028716     0.07640
Br1106     Br  0.46684077  0.17145687  0.22297179    -0.02970
C1107       C  0.45073545  0.36381945  0.16552691    -0.09600
C1108       C  0.44302651  0.33029011  0.15701910     0.06590
C1109       C  0.43375061  0.32767270  0.12361630    -0.03370
C1110       C  0.43300996  0.35674644  0.10098755    -0.07820
C1111       C  0.44093998  0.39024991  0.10954842     0.05710
C1112       C  0.45101431  0.39221564  0.14238136    -0.02840
Br1113     Br  0.46855862  0.42818022  0.15896235    -0.02540
H1114       H  0.45668014  0.36925397  0.19106971     0.09620
H1115       H  0.42579084  0.35314988  0.07600771     0.07640
Br1116     Br  0.42243099  0.28504879  0.10497256    -0.02970
C1117       C  0.47226549  0.32115877  0.21971828    -0.09600
C1118       C  0.45307331  0.30979474  0.22073987     0.06590
C1119       C  0.44517484  0.30495365  0.25552582    -0.03370
C1120       C  0.45474258  0.31786663  0.28540469    -0.07820
C1121       C  0.47303337  0.33201052  0.28334704     0.05710
C1122       C  0.48201372  0.33278288  0.24998477    -0.02840
Br1123     Br  0.50726172  0.35068863  0.24325631    -0.02540
H1124       H  0.47960095  0.32223736  0.19451852     0.09620
H1125       H  0.44823145  0.31458670  0.31117822     0.07640
Br1126     Br  0.42410597  0.27493829  0.26853866    -0.02970
C1127       C  0.41509631  0.25465068  0.18196715    -0.09600
C1128       C  0.42219012  0.28905968  0.18995203     0.06590
C1129       C  0.40881742  0.31416573  0.20289649    -0.03370
C1130       C  0.39010701  0.30400956  0.20952094    -0.07820
C1131       C  0.38380977  0.26914550  0.20432165     0.05710
C1132       C  0.39647230  0.24444028  0.18968453    -0.02840
Br1133     Br  0.38969270  0.19611387  0.17975736    -0.02540
H1134       H  0.42380816  0.23494924  0.16928292     0.09620
H1135       H  0.38054067  0.32362356  0.22029461     0.07640
Br1136     Br  0.41489859  0.36189365  0.21697447    -0.02970
C1137       C  0.23966299  0.16316170  0.07556399    -0.09600
C1138       C  0.23241913  0.13946473  0.10080187     0.06590
C1139       C  0.21259572  0.13041445  0.09695253    -0.03370
C1140       C  0.20079346  0.15140512  0.07690784    -0.07820
C1141       C  0.20784592  0.17927078  0.05723951     0.05710
C1142       C  0.22772008  0.18359586  0.05469720    -0.02840
Br1143     Br  0.23967966  0.21918133  0.02647527    -0.02540
H1144       H  0.25469969  0.16857020  0.07435803     0.09620
H1145       H  0.18570909  0.14585761  0.07674857     0.07640
Br1146     Br  0.19892369  0.08973895  0.11417981    -0.02970
C1147       C  0.27912106  0.11878104  0.09658009    -0.09600
C1148       C  0.26147859  0.10190482  0.10514726     0.06590
C1149       C  0.25859906  0.06813461  0.08875005    -0.03370
C1150       C  0.27340341  0.05145637  0.06994902    -0.07820
C1151       C  0.29125038  0.06752715  0.06535967     0.05710
C1152       C  0.29382381  0.10192332  0.07830915    -0.02840
Br1153     Br  0.31676414  0.12821945  0.07019087    -0.02540
H1154       H  0.28188742  0.14591998  0.10417537     0.09620
H1155       H  0.27095202  0.02524261  0.05897683     0.07640
Br1156     Br  0.23527971  0.04228798  0.08836473    -0.02970
C1157       C  0.27290652  0.20303516  0.17735796    -0.09600
C1158       C  0.28666887  0.18402893  0.19512117     0.06590
C1159       C  0.28606816  0.14745469  0.19368845    -0.03370
C1160       C  0.27206286  0.13046823  0.17403829    -0.07820
C1161       C  0.25878274  0.14867810  0.15278554     0.05710
C1162       C  0.25947602  0.18645595  0.15531646    -0.02840
Br1163     Br  0.24422323  0.22002453  0.13124697    -0.02540
H1164       H  0.27325545  0.23156146  0.17932028     0.09620
H1165       H  0.27257018  0.10203603  0.17334265     0.07640
Br1166     Br  0.30398754  0.11935077  0.21826520    -0.02970
C1167       C  0.20832587  0.10307404  0.20005092    -0.09600
C1168       C  0.21153559  0.06794029  0.20679031     0.06590
C1169       C  0.22822237  0.05230911  0.19403171    -0.03370
C1170       C  0.23936946  0.06961870  0.16864370    -0.07820
C1171       C  0.23481966  0.10388561  0.15749818     0.05710
C1172       C  0.22035735  0.12178658  0.17770371    -0.02840
Br1173     Br  0.21358325  0.17033027  0.17419773    -0.02540
H1174       H  0.19599389  0.11578764  0.21147951     0.09620
H1175       H  0.25168176  0.05628510  0.15819813     0.07640
Br1176     Br  0.23614604  0.00777055  0.21140546    -0.02970
C1177       C  0.24073676  0.06156799  0.59012543    -0.09600
C1178       C  0.23803490  0.09809480  0.59522399     0.06590
C1179       C  0.22272163  0.11337875  0.57583478    -0.03370
C1180       C  0.20920083  0.09188831  0.55918055    -0.07820
C1181       C  0.21155911  0.05572838  0.55653196     0.05710
C1182       C  0.22839831  0.04111618  0.56909081    -0.02840
Br1183     Br  0.23530890  0.99365216  0.55744327    -0.02540
H1184       H  0.25246163  0.04851549  0.60224771     0.09620
H1185       H  0.19666147  0.10354743  0.54813334     0.07640
Br1186     Br  0.21655458  0.16262364  0.57458892    -0.02970
C1187       C  0.25908905  0.18104184  0.59226348    -0.09600
C1188       C  0.26199871  0.14451028  0.59524834     0.06590
C1189       C  0.27682546  0.12969094  0.57346135    -0.03370
C1190       C  0.28977413  0.15154156  0.55612747    -0.07820
C1191       C  0.28731886  0.18775804  0.55556046     0.05710
C1192       C  0.27081278  0.20198127  0.57098351    -0.02840
Br1193     Br  0.26334079  0.24953827  0.56357700    -0.02540
H1194       H  0.24765234  0.19382460  0.60629681     0.09620
H1195       H  0.30198943  0.14009874  0.54299237     0.07640
Br1196     Br  0.28302814  0.08054505  0.56934518    -0.02970
C1197       C  0.28371327  0.11521951  0.64963528    -0.09600
C1198       C  0.26489205  0.10151674  0.64598883     0.06590
C1199       C  0.26023392  0.07283404  0.66852791    -0.03370
C1200       C  0.27431697  0.05697818  0.68893026    -0.07820
C1201       C  0.29315550  0.06939962  0.68921182     0.05710
C1202       C  0.29754655  0.09959321  0.67005121    -0.02840
Br1203     Br  0.32196640  0.12235653  0.67179137    -0.02540
H1204       H  0.28819354  0.13916017  0.63698658     0.09620
H1205       H  0.27047821  0.03426429  0.70450179     0.07640
Br1206     Br  0.23527692  0.05337445  0.67478543    -0.02970
C1207       C  0.22746554  0.18534573  0.69269767    -0.09600
C1208       C  0.20862126  0.17319247  0.69346652     0.06590
C1209       C  0.20391911  0.14276184  0.67418099    -0.03370
C1210       C  0.21750079  0.12659522  0.65282793    -0.07820
C1211       C  0.23625933  0.14030753  0.64814825     0.05710
C1212       C  0.24128331  0.16911207  0.67115038    -0.02840
Br1213     Br  0.26625838  0.18886414  0.67594099    -0.02540
H1214       H  0.23141589  0.20841497  0.70835647     0.09620
H1215       H  0.21281115  0.10255372  0.63991284     0.07640
Br1216     Br  0.17930225  0.12088953  0.67687999    -0.02970
C1217       C  0.72714911  0.42062593  0.89484024    -0.09600
C1218       C  0.73816687  0.39916392  0.91694892     0.06590
C1219       C  0.73501491  0.40308567  0.95435669    -0.03370
C1220       C  0.72042181  0.42485333  0.96691295    -0.07820
C1221       C  0.70820279  0.44172315  0.94392304     0.05710
C1222       C  0.71187986  0.43993668  0.90753215    -0.02840
Br1223     Br  0.69671356  0.46316790  0.87333148    -0.02540
H1224       H  0.72952442  0.42007794  0.86653255     0.09620
H1225       H  0.71795490  0.42730541  0.99514547     0.07640
Br1226     Br  0.74693653  0.37795228  0.99178249    -0.02970
C1227       C  0.77835919  0.36482465  0.93789905    -0.09600
C1228       C  0.76253654  0.34740064  0.92158692     0.06590
C1229       C  0.76154783  0.30998766  0.92574871    -0.03370
C1230       C  0.77579627  0.29261879  0.94396117    -0.07820
C1231       C  0.79193644  0.31026271  0.95647654     0.05710
C1232       C  0.79313764  0.34677457  0.95355028    -0.02840
Br1233     Br  0.81449185  0.37336160  0.97078317    -0.02540
H1234       H  0.77962191  0.39320829  0.93759166     0.09620
H1235       H  0.77482521  0.26424388  0.94654693     0.07640
Br1236     Br  0.74312064  0.27768030  0.90692298    -0.02970
C1237       C  0.70254206  0.32522052  0.86617449    -0.09600
C1238       C  0.70398469  0.32577790  0.82933625     0.06590
C1239       C  0.72041697  0.34062193  0.81427262    -0.03370
C1240       C  0.73500821  0.35354162  0.83592388    -0.07820
C1241       C  0.73464270  0.35094971  0.87340157     0.05710
C1242       C  0.71715500  0.33771506  0.88805063    -0.02840
Br1243     Br  0.71118363  0.33469328  0.93768174    -0.02540
H1244       H  0.68996477  0.31408114  0.87836223     0.09620
H1245       H  0.74628269  0.36705177  0.82234953     0.07640
Br1246     Br  0.72373912  0.34583149  0.76416581    -0.02970
C1247       C  0.79361318  0.38658167  0.83332572    -0.09600
C1248       C  0.79841631  0.42164898  0.84117178     0.06590
C1249       C  0.78742075  0.44026751  0.86627181    -0.03370
C1250       C  0.77104189  0.42490140  0.88028714    -0.07820
C1251       C  0.76590976  0.38917897  0.87330971     0.05710
C1252       C  0.77844423  0.36973173  0.85048706    -0.02840
Br1253     Br  0.77656638  0.31973482  0.84185592    -0.02540
H1254       H  0.80216008  0.37176608  0.81453313     0.09620
H1255       H  0.76339428  0.44079348  0.89938059     0.07640
Br1256     Br  0.79384527  0.48697046  0.88339434    -0.02970
C1257       C  0.77448497  0.38343620  0.42619685    -0.09600
C1258       C  0.76091681  0.40426811  0.40834722     0.06590
C1259       C  0.76281454  0.44170256  0.41303925    -0.03370
C1260       C  0.77733379  0.45580502  0.43416330    -0.07820
C1261       C  0.79099544  0.43464541  0.44953026     0.05710
C1262       C  0.78949409  0.39814260  0.44559571    -0.02840
Br1263     Br  0.80743100  0.36745128  0.46659420    -0.02540
H1264       H  0.77375000  0.35496646  0.42397583     0.09620
H1265       H  0.77868666  0.48421505  0.43698280     0.07640
Br1266     Br  0.74905609  0.47779494  0.38961877    -0.02970
C1267       C  0.73311545  0.35801815  0.44134527    -0.09600
C1268       C  0.73351944  0.35798337  0.40375112     0.06590
C1269       C  0.71907923  0.33734698  0.38642409    -0.03370
C1270       C  0.70478038  0.32074922  0.40587507    -0.07820
C1271       C  0.70451529  0.32173490  0.44278828     0.05710
C1272       C  0.71904230  0.34024813  0.46054724    -0.02840
Br1273     Br  0.71989396  0.34422686  0.51117064    -0.02540
H1274       H  0.74293110  0.37364324  0.45680466     0.09620
H1275       H  0.69421739  0.30519099  0.39179976     0.07640
Br1276     Br  0.71755004  0.32839751  0.33627361    -0.02970
C1277       C  0.76185940  0.32534848  0.35834100    -0.09600
C1278       C  0.76141730  0.36253737  0.35804343     0.06590
C1279       C  0.77616355  0.37969544  0.33814460    -0.03370
C1280       C  0.79017672  0.36008478  0.32051782    -0.07820
C1281       C  0.78972432  0.32338380  0.32034646     0.05710
C1282       C  0.77506497  0.30610751  0.33876682    -0.02840
Br1283     Br  0.77251520  0.25591558  0.34017890    -0.02540
H1284       H  0.75217110  0.31024700  0.37432330     0.09620
H1285       H  0.80134952  0.37363916  0.30624416     0.07640
Br1286     Br  0.77867515  0.42975834  0.33277973    -0.02970
C1287       C  0.70219147  0.43498529  0.35567835    -0.09600
C1288       C  0.70276948  0.43249687  0.31873925     0.06590
C1289       C  0.71861780  0.41680024  0.30250865    -0.03370
C1290       C  0.73345673  0.40453243  0.32306973    -0.07820
C1291       C  0.73310429  0.40605676  0.36063618     0.05710
C1292       C  0.71685020  0.42237611  0.37653433    -0.02840
Br1293     Br  0.71315874  0.42987700  0.42660195    -0.02540
H1294       H  0.69042159  0.44804762  0.36867322     0.09620
H1295       H  0.74454853  0.39131576  0.30863117     0.07640
Br1296     Br  0.72079006  0.40990740  0.25220722    -0.02970
C1297       C  0.74718247  0.88344374  0.38262363    -0.02930
C1298       C  0.75021312  0.87060977  0.89674767    -0.02930
C1299       C  0.25037208  0.62106190  0.62158544    -0.02930
C1300       C  0.24643273  0.62345834  0.12832009    -0.02930
C1301       C  0.44347542  0.79914879  0.18433118    -0.02930
C1302       C  0.05659713  0.95853663  0.17873007    -0.02930
C1303       C  0.55329945  0.70395239  0.83169388    -0.02930
C1304       C  0.94461542  0.55074860  0.82462780    -0.02930
In1305     In  0.17124782  0.75590426  0.02337416     1.36870
C1306       C  0.19469323  0.80051480  0.05317560     0.77140
O1307       O  0.14922186  0.79737070  0.02312193    -0.61310
O1308       O  0.14311054  0.75148485  0.05265899    -0.52220
C1309       C  0.16549971  0.74495590  0.95574876     0.69800
O1310       O  0.17271066  0.77296303  0.96825454    -0.47080
C1311       C  0.19405252  0.70434523  0.04241347     0.74510
O1312       O  0.19355861  0.79711070  0.02006793    -0.58940
O1313       O  0.17700801  0.70631788  0.05312954    -0.49030
O1314       O  0.18253163  0.78328875  0.07058223    -0.55370
C1315       C  0.13747206  0.78106434  0.04208417     0.84690
O1316       O  0.16111725  0.72190269  0.97816548    -0.57260
O1317       O  0.19853676  0.72674933  0.01965574    -0.60560
C1318       C  0.06063290  0.83448927  0.07400766    -0.02930
In1319     In  0.00331926  0.86481681  0.87967608     1.36870
C1320       C  0.98364598  0.92381386  0.87138027     0.77140
O1321       O  0.02680735  0.87288357  0.83917992    -0.61310
O1322       O  0.00277583  0.84285504  0.82434560    -0.52220
C1323       C  0.02127730  0.86664081  0.94129144     0.69800
O1324       O  0.00369716  0.87075223  0.93850059    -0.47080
C1325       C  0.98595022  0.80407980  0.89381356     0.74510
O1326       O  0.00083529  0.92423380  0.88022052    -0.58940
O1327       O  0.00352994  0.80635445  0.88799584    -0.49030
O1328       O  0.97681380  0.89332984  0.86733603    -0.55370
C1329       C  0.01858127  0.85530611  0.81508393     0.84690
O1330       O  0.03012348  0.86461866  0.91222211    -0.57260
O1331       O  0.97730879  0.83289267  0.89153982    -0.60560
C1332       C  0.25327179  0.87958621  0.12948650    -0.02930
In1333     In  0.33217427  0.50180202  0.02145365     1.36870
C1334       C  0.31274546  0.95391400  0.05317289     0.77140
O1335       O  0.35353725  0.95956277  0.02723225    -0.61310
O1336       O  0.36183160  0.51181493  0.04212046    -0.52220
C1337       C  0.33412201  0.51364799  0.95312480     0.69800
O1338       O  0.32572490  0.98732124  0.96599287    -0.47080
C1339       C  0.30662989  0.54740855  0.04731023     0.74510
O1340       O  0.31454332  0.95313191  0.01987677    -0.58940
O1341       O  0.32402321  0.54966301  0.05530074    -0.49030
O1342       O  0.32263874  0.97663354  0.06969120    -0.55370
C1343       C  0.36621111  0.97954592  0.03978733     0.84690
O1344       O  0.34232847  0.53376193  0.97525562    -0.57260
O1345       O  0.30300805  0.52444047  0.02392139    -0.60560
C1346       C  0.43975024  0.91955430  0.08046368    -0.02930
In1347     In  0.49731487  0.89294454  0.88672556     1.36870
C1348       C  0.51620303  0.83209249  0.88353203     0.77140
O1349       O  0.49181013  0.88216267  0.82810337    -0.61310
O1350       O  0.47780939  0.92445027  0.85266952    -0.52220
C1351       C  0.47640796  0.88416001  0.94523659     0.69800
O1352       O  0.49425209  0.88498879  0.94480885    -0.47080
C1353       C  0.51756642  0.95213408  0.89948012     0.74510
O1354       O  0.49833464  0.83347079  0.88433714    -0.58940
O1355       O  0.50168348  0.94568753  0.91325144    -0.49030
O1356       O  0.52422112  0.86196939  0.88454382    -0.55370
C1357       C  0.48088831  0.90779195  0.82428401     0.84690
O1358       O  0.46911374  0.88581664  0.91493370    -0.57260
O1359       O  0.52338420  0.92773365  0.87926609    -0.60560
In1360     In  0.83219916  0.74014392  0.98622120     1.36870
C1361       C  0.81253253  0.69760551  0.94511520     0.77140
O1362       O  0.80361539  0.76320375  0.99038004    -0.61310
O1363       O  0.82450929  0.79178921  0.96132065    -0.52220
C1364       C  0.83386510  0.74517179  0.05592693     0.69800
O1365       O  0.82758070  0.71836328  0.03955026    -0.47080
C1366       C  0.86721401  0.72347363  0.96726448     0.74510
O1367       O  0.81430615  0.69168232  0.97774710    -0.58940
O1368       O  0.86181718  0.75517618  0.96868730    -0.49030
O1369       O  0.82223412  0.72312721  0.93352396    -0.55370
C1370       C  0.80728546  0.78879158  0.97064774     0.84690
O1371       O  0.83989714  0.76936440  0.03618347    -0.57260
O1372       O  0.85479498  0.70103286  0.97559243    -0.60560
C1373       C  0.94354102  0.67316055  0.93070101    -0.02930
In1374     In  0.99852870  0.65031762  0.12894074     1.36870
C1375       C  0.98003353  0.64729701  0.06702083     0.77140
O1376       O  0.97788356  0.63483480  0.17209826    -0.61310
O1377       O  0.98773353  0.68755888  0.17105125    -0.52220
C1378       C  0.01566788  0.58921099  0.14369844     0.69800
O1379       O  0.00535212  0.59304824  0.11708168    -0.47080
C1380       C  0.02163718  0.70568008  0.12126957     0.74510
O1381       O  0.99771201  0.64993380  0.06957196    -0.58940
O1382       O  0.00432204  0.70840449  0.12856979    -0.49030
O1383       O  0.97159347  0.64624341  0.09651328    -0.55370
C1384       C  0.97788983  0.66496332  0.18684036     0.84690
O1385       O  0.01772025  0.61695935  0.16221147    -0.57260
O1386       O  0.02742955  0.67432620  0.11848202    -0.60560
C1387       C  0.75274662  0.62998312  0.86060661    -0.02930
In1388     In  0.67025956  0.01533058  0.97824772     1.36870
C1389       C  0.69276028  0.55773096  0.94247876     0.77140
O1390       O  0.69620307  0.98378621  0.98541626    -0.61310
O1391       O  0.67728159  0.96820340  0.94432690    -0.52220
C1392       C  0.66684421  0.00941609  0.04765429     0.69800
O1393       O  0.67357312  0.53648510  0.03299562    -0.47080
C1394       C  0.63561078  0.53307264  0.95894889     0.74510
O1395       O  0.69102830  0.56029675  0.97575426    -0.58940
O1396       O  0.64057985  0.00125330  0.96086801    -0.49030
O1397       O  0.68187696  0.53535923  0.92807996    -0.55370
C1398       C  0.69327524  0.96449597  0.95858675     0.84690
O1399       O  0.66128426  0.98555789  0.02639445    -0.57260
O1400       O  0.64827543  0.55526607  0.96721148    -0.60560
C1401       C  0.55845879  0.58527703  0.93717094    -0.02930
In1402     In  0.50161893  0.60819134  0.13368943     1.36870
C1403       C  0.52195925  0.61588731  0.07418832     0.77140
O1404       O  0.52678226  0.60280192  0.16914632    -0.61310
O1405       O  0.49991547  0.58742655  0.18917481    -0.52220
C1406       C  0.48556777  0.67040310  0.14651760     0.69800
O1407       O  0.47856366  0.64766139  0.12572774    -0.47080
C1408       C  0.48147056  0.55065216  0.11710600     0.74510
O1409       O  0.50482870  0.62436218  0.07688015    -0.58940
O1410       O  0.47436077  0.57656540  0.13349682    -0.49030
O1411       O  0.52894886  0.60552442  0.10273012    -0.55370
C1412       C  0.51743591  0.59056001  0.19480906     0.84690
O1413       O  0.50109170  0.66197269  0.15996984    -0.57260
O1414       O  0.49888805  0.55383542  0.11075434    -0.60560
In1415     In  0.66878119  0.50366812  0.27005961     1.36870
C1416       C  0.69423756  0.54818790  0.29419865     0.77140
O1417       O  0.64752012  0.54362941  0.28666457    -0.61310
O1418       O  0.63893264  0.98990169  0.28583593    -0.52220
C1419       C  0.66618142  0.00287153  0.20036936     0.69800
O1420       O  0.66906932  0.53024348  0.21882240    -0.47080
C1421       C  0.68866350  0.95249946  0.29855249     0.74510
O1422       O  0.69330887  0.54019749  0.26187141    -0.58940
O1423       O  0.67350711  0.96371768  0.31225914    -0.49030
O1424       O  0.68142659  0.53548434  0.31356614    -0.55370
C1425       C  0.63446144  0.52160307  0.29219657     0.84690
O1426       O  0.66318252  0.97526571  0.21797885    -0.57260
O1427       O  0.69188087  0.96368786  0.26796404    -0.60560
In1428     In  0.83015573  0.75717380  0.27832052     1.36870
C1429       C  0.81192822  0.70688452  0.31045941     0.77140
O1430       O  0.85404243  0.72006654  0.27845975    -0.61310
O1431       O  0.85851359  0.76983027  0.30378558    -0.52220
C1432       C  0.83173573  0.76003444  0.20846490     0.69800
O1433       O  0.82419739  0.73546955  0.22554738    -0.47080
C1434       C  0.80469737  0.80308141  0.30201309     0.74510
O1435       O  0.81374090  0.70795140  0.27735060    -0.58940
O1436       O  0.82225278  0.80819899  0.30683362    -0.49030
O1437       O  0.82108735  0.73024294  0.32745607    -0.55370
C1438       C  0.86520115  0.74006207  0.29516444     0.84690
O1439       O  0.83829061  0.78493688  0.22756666    -0.57260
O1440       O  0.80072844  0.77739752  0.28195038    -0.60560
In1441     In  0.33253827  0.00337111  0.73376257     1.36870
C1442       C  0.31243535  0.95267656  0.70692507     0.77140
O1443       O  0.30369113  0.52742086  0.73146271    -0.61310
O1444       O  0.32538445  0.55017595  0.70030067    -0.52220
C1445       C  0.33444044  0.51669397  0.80238285     0.69800
O1446       O  0.32471046  0.99202233  0.78875687    -0.47080
C1447       C  0.36705603  0.98324164  0.71421761     0.74510
O1448       O  0.31627376  0.95353296  0.73939027    -0.58940
O1449       O  0.36057890  0.51280911  0.70572247    -0.49030
O1450       O  0.32118303  0.97450919  0.68790332    -0.55370
C1451       C  0.30791638  0.54924221  0.70800974     0.84690
O1452       O  0.34343460  0.53553356  0.78057820    -0.57260
O1453       O  0.35601483  0.96491741  0.73280430    -0.60560
In1454     In  0.17085256  0.74336828  0.73684358     1.36870
C1455       C  0.19459547  0.78954098  0.71145873     0.77140
O1456       O  0.19798312  0.71365169  0.73838030    -0.61310
O1457       O  0.17728176  0.69713816  0.70104649    -0.52220
C1458       C  0.16451486  0.73923646  0.80518144     0.69800
O1459       O  0.17010083  0.76671833  0.79012579    -0.47080
C1460       C  0.13656120  0.76172298  0.71618858     0.74510
O1461       O  0.19381156  0.78289449  0.74388793    -0.58940
O1462       O  0.14254445  0.73067458  0.71145056    -0.49030
O1463       O  0.18191995  0.77487102  0.69280627    -0.55370
C1464       C  0.19407587  0.69436422  0.71201138     0.84690
O1465       O  0.16238110  0.71257230  0.78501967    -0.57260
O1466       O  0.14823975  0.78286977  0.73019729    -0.60560
C1467       C  0.94283549  0.69533928  0.32714345    -0.02930
C1468       C  0.55567519  0.55356659  0.32744734    -0.02930
In1469     In  0.67158024  0.74300459  0.48486401     1.36870
C1470       C  0.69698883  0.70091936  0.45664026     0.77140
O1471       O  0.65085456  0.69810576  0.48002900    -0.61310
O1472       O  0.64237047  0.74782757  0.46140949    -0.52220
C1473       C  0.66848297  0.75269155  0.55413517     0.69800
O1474       O  0.67811752  0.72871918  0.53954596    -0.47080
C1475       C  0.69094135  0.79807979  0.46102437     0.74510
O1476       O  0.69219283  0.69881245  0.48865055    -0.58940
O1477       O  0.67571047  0.78734212  0.44692525    -0.49030
O1478       O  0.68780527  0.72241421  0.43875653    -0.55370
C1479       C  0.63803148  0.71590286  0.46625748     0.84690
O1480       O  0.66007153  0.77231736  0.53277541    -0.57260
O1481       O  0.69476676  0.78346072  0.48968602    -0.60560
C1482       C  0.55948281  0.67238499  0.43650986    -0.02930
In1483     In  0.50247811  0.64209960  0.63486189     1.36870
C1484       C  0.48663470  0.57893932  0.65017801     0.77140
O1485       O  0.52835990  0.64332620  0.66982807    -0.61310
O1486       O  0.50215831  0.66120320  0.69076473    -0.52220
C1487       C  0.52148308  0.64309299  0.57336219     0.69800
O1488       O  0.50568361  0.62781034  0.57675431    -0.47080
C1489       C  0.48216910  0.70014014  0.62226994     0.74510
O1490       O  0.50390442  0.58253679  0.64223865    -0.58940
O1491       O  0.49726414  0.70075386  0.63965557    -0.49030
O1492       O  0.47767864  0.60753448  0.64963469    -0.55370
C1493       C  0.51961812  0.65699787  0.69581198     0.84690
O1494       O  0.52797371  0.65577672  0.60184070    -0.57260
O1495       O  0.47714002  0.66958633  0.61209341    -0.60560
C1496       C  0.75230693  0.62103217  0.37498314    -0.02930
In1497     In  0.83146969  0.00171562  0.48810262     1.36870
C1498       C  0.80897871  0.54353304  0.45451988     0.77140
O1499       O  0.85251078  0.54536268  0.48122118    -0.61310
O1500       O  0.86020647  0.99453895  0.46243720    -0.52220
C1501       C  0.83512914  0.99467857  0.55715400     0.69800
O1502       O  0.82812493  0.52137400  0.54300178    -0.47080
C1503       C  0.80672250  0.95279736  0.46799500     0.74510
O1504       O  0.81098103  0.54538710  0.48764246    -0.58940
O1505       O  0.82389874  0.95124517  0.45802381    -0.49030
O1506       O  0.82006692  0.52263357  0.43862903    -0.55370
C1507       C  0.86478631  0.52681712  0.46563358     0.84690
O1508       O  0.84103812  0.97149932  0.53546976    -0.57260
O1509       O  0.80332754  0.97562981  0.49160758    -0.60560
C1510       C  0.94189542  0.58131076  0.43916910    -0.02930
In1511     In  0.00167447  0.61134596  0.63413272     1.36870
C1512       C  0.02269734  0.66977073  0.64586525     0.77140
O1513       O  0.98237050  0.62841763  0.68003810    -0.61310
O1514       O  0.98848782  0.57444344  0.67177879    -0.52220
C1515       C  0.98103916  0.60955046  0.57511121     0.69800
O1516       O  0.99817436  0.61861516  0.57634927    -0.47080
C1517       C  0.02226467  0.55385974  0.62079144     0.74510
O1518       O  0.00724398  0.66996277  0.62956277    -0.58940
O1519       O  0.01808312  0.56373732  0.65176173    -0.49030
O1520       O  0.02740839  0.63977910  0.65630832    -0.55370
C1521       C  0.98063031  0.59730744  0.69114483     0.84690
O1522       O  0.97379960  0.60376666  0.60512106    -0.57260
O1523       O  0.01752486  0.57531042  0.59753822    -0.60560
In1524     In  0.17013719  0.48477079  0.52742462     1.36870
C1525       C  0.19050270  0.94095691  0.56184919     0.77140
O1526       O  0.19883582  0.50841141  0.52138763    -0.61310
O1527       O  0.17909915  0.53570225  0.55441739    -0.52220
C1528       C  0.16650405  0.49146356  0.45933030     0.69800
O1529       O  0.17331035  0.96478122  0.47351845    -0.47080
C1530       C  0.13545988  0.96470514  0.54679184     0.74510
O1531       O  0.18825898  0.93832910  0.52886504    -0.58940
O1532       O  0.14175832  0.49581515  0.55151061    -0.49030
O1533       O  0.18048874  0.96396813  0.57739219    -0.55370
C1534       C  0.19601782  0.53323205  0.54315522     0.84690
O1535       O  0.16087314  0.51512321  0.48066648    -0.57260
O1536       O  0.14709838  0.94424315  0.53199135    -0.60560
C1537       C  0.05605168  0.91899425  0.57445070    -0.02930
In1538     In  0.00114150  0.89371606  0.37265892     1.36870
C1539       C  0.01925675  0.89198085  0.43491892     0.77140
O1540       O  0.02750797  0.90179178  0.33931724    -0.61310
O1541       O  0.00104414  0.90405288  0.31383991    -0.52220
C1542       C  0.98345358  0.83096972  0.36065790     0.69800
O1543       O  0.00035785  0.83315102  0.37118548    -0.47080
C1544       C  0.98237541  0.95316261  0.38951235     0.74510
O1545       O  0.00151179  0.89063177  0.43203196    -0.58940
O1546       O  0.99852474  0.95339162  0.37514719    -0.49030
O1547       O  0.02784563  0.89195205  0.40555999    -0.55370
C1548       C  0.01879142  0.90660662  0.31082657     0.84690
O1549       O  0.97614815  0.86060691  0.35605905    -0.57260
O1550       O  0.97544033  0.92269251  0.39293699    -0.60560
C1551       C  0.25132889  0.87592992  0.64046784    -0.02930
In1552     In  0.32924363  0.75688900  0.52417743     1.36870
C1553       C  0.31188645  0.80223973  0.56476990     0.77140
O1554       O  0.29942009  0.73747783  0.52400780    -0.61310
O1555       O  0.32011200  0.70511245  0.54756309    -0.52220
C1556       C  0.33030360  0.74856027  0.45518311     0.69800
O1557       O  0.32376570  0.77565163  0.47052084    -0.47080
C1558       C  0.36486668  0.77414911  0.53866303     0.74510
O1559       O  0.31283356  0.80584076  0.53164084    -0.58940
O1560       O  0.35773700  0.74490011  0.54794347    -0.49030
O1561       O  0.32176492  0.77787417  0.57702867    -0.55370
C1562       C  0.30271471  0.71035270  0.54146225     0.84690
O1563       O  0.33667779  0.72552445  0.47552552    -0.57260
O1564       O  0.35374040  0.79364547  0.52227030    -0.60560
C1565       C  0.44208564  0.82723342  0.57534884    -0.02930
In1566     In  0.49933561  0.85930537  0.37857690     1.36870
C1567       C  0.48192598  0.86224378  0.44153237     0.77140
O1568       O  0.47342102  0.85063023  0.34477913    -0.61310
O1569       O  0.50019108  0.84399640  0.32063986    -0.52220
C1570       C  0.51552818  0.92171888  0.36411996     0.69800
O1571       O  0.49909596  0.91927025  0.37716789    -0.47080
C1572       C  0.51914670  0.80159846  0.39366616     0.74510
O1573       O  0.47278983  0.86202250  0.41296070    -0.58940
O1574       O  0.50203955  0.80039995  0.38430695    -0.49030
O1575       O  0.49962230  0.86423573  0.43757229    -0.55370
C1576       C  0.48251104  0.84290927  0.31690324     0.84690
O1577       O  0.52359595  0.89258684  0.35971413    -0.57260
O1578       O  0.52607901  0.83232054  0.39435424    -0.60560
C1579       C  0.44635930  0.94550575  0.68753935    -0.02930
C1580       C  0.05840806  0.80592799  0.68751499    -0.02930
In1581     In  0.17118370  0.99792826  0.23911257     1.36870
C1582       C  0.19235831  0.95176842  0.20586255     0.77140
O1583       O  0.14714111  0.96295531  0.22443306    -0.61310
O1584       O  0.14267786  0.51805662  0.22316132    -0.52220
C1585       C  0.16742066  0.49655122  0.30780699     0.69800
O1586       O  0.17006857  0.96961901  0.28878037    -0.47080
C1587       C  0.19621243  0.54658890  0.22207056     0.74510
O1588       O  0.19096245  0.95308827  0.23904733    -0.58940
O1589       O  0.17961320  0.54636314  0.20969953    -0.49030
O1590       O  0.18151526  0.97226921  0.18980365    -0.55370
C1591       C  0.13568515  0.98740464  0.21928985     0.84690
O1592       O  0.16588878  0.52492644  0.29115922    -0.57260
O1593       O  0.19904470  0.52480691  0.24605182    -0.60560
In1594     In  0.32851010  0.74828493  0.23412095     1.36870
C1595       C  0.31100208  0.79588364  0.19829775     0.77140
O1596       O  0.35346710  0.78338120  0.22849287    -0.61310
O1597       O  0.35653965  0.73015069  0.21192784    -0.52220
C1598       C  0.32908681  0.74394503  0.30344778     0.69800
O1599       O  0.32485477  0.77142826  0.28735403    -0.47080
C1600       C  0.30203712  0.70360465  0.21273467     0.74510
O1601       O  0.31240415  0.79776332  0.23153696    -0.58940
O1602       O  0.31940642  0.69792650  0.20664858    -0.49030
O1603       O  0.32040683  0.77171319  0.18339583    -0.55370
C1604       C  0.36413059  0.76034835  0.21504761     0.84690
O1605       O  0.33388276  0.71824687  0.28383055    -0.57260
O1606       O  0.29864952  0.72967849  0.23260862    -0.60560
In1607     In  0.83082026  0.48609995  0.77942676     1.36870
C1608       C  0.80337206  0.53130493  0.78938649     0.77140
O1609       O  0.81502925  0.93473461  0.78717183    -0.61310
O1610       O  0.82304774  0.96488359  0.83231602    -0.52220
C1611       C  0.83339445  0.98623864  0.70950667     0.69800
O1612       O  0.83029869  0.51328873  0.72820323    -0.47080
C1613       C  0.86576557  0.50184646  0.80030184     0.74510
O1614       O  0.80038390  0.50091181  0.77664530    -0.58940
O1615       O  0.86189502  0.97401202  0.78288351    -0.49030
O1616       O  0.82055408  0.53921025  0.79446542    -0.55370
C1617       C  0.81310333  0.93991862  0.82002305     0.84690
O1618       O  0.83605546  0.95852579  0.72678226    -0.57260
O1619       O  0.85163690  0.52009471  0.80873626    -0.60560
In1620     In  0.66803128  0.75752818  0.77630049     1.36870
C1621       C  0.69225780  0.71245929  0.80036458     0.77140
O1622       O  0.69205664  0.79658929  0.77669687    -0.61310
O1623       O  0.67389043  0.79585052  0.82120223    -0.52220
C1624       C  0.66658949  0.75908563  0.70674925     0.69800
O1625       O  0.66974902  0.73166349  0.72389970    -0.47080
C1626       C  0.63266838  0.74035794  0.79368826     0.74510
O1627       O  0.69207524  0.72108276  0.76837054    -0.58940
O1628       O  0.63775962  0.77190061  0.78822700    -0.49030
O1629       O  0.67872875  0.72404888  0.81885796    -0.55370
C1630       C  0.68932365  0.80673271  0.80810958     0.84690
O1631       O  0.66301852  0.78620426  0.72548824    -0.57260
O1632       O  0.64567858  0.71821008  0.78995311    -0.60560
C1633       C  0.45489130  0.88842347  0.59993917    -0.09600
C1634       C  0.44224377  0.85911809  0.60389895     0.06590
C1635       C  0.43095006  0.86123109  0.63531115    -0.03370
C1636       C  0.43566678  0.88519683  0.66269364    -0.07820
C1637       C  0.44645912  0.91630226  0.65693851     0.05710
C1638       C  0.45435253  0.91861192  0.62224672    -0.02840
Br1639     Br  0.45994641  0.96141564  0.59759826    -0.02540
H1640       H  0.46415981  0.89040639  0.57732622     0.09620
H1641       H  0.42811650  0.88235747  0.68727465     0.07640
Br1642     Br  0.40464626  0.84856180  0.63853884    -0.02970
C1643       C  0.47116335  0.82566562  0.53171722    -0.09600
C1644       C  0.45328103  0.84029810  0.54100654     0.06590
C1645       C  0.44755629  0.86913444  0.51953051    -0.03370
C1646       C  0.45676212  0.87583061  0.48707452    -0.07820
C1647       C  0.47295905  0.85720371  0.47665880     0.05710
C1648       C  0.48048698  0.83290448  0.50010622    -0.02840
Br1649     Br  0.50284835  0.80603095  0.48955476    -0.02540
H1650       H  0.47842233  0.80773073  0.54859453     0.09620
H1651       H  0.45141853  0.89615304  0.47016506     0.07640
Br1652     Br  0.42741412  0.90101449  0.53242033    -0.02970
C1653       C  0.31638713  0.76420694  0.39839932    -0.09600
C1654       C  0.32982976  0.74458673  0.41644979     0.06590
C1655       C  0.34230502  0.72267426  0.39701863    -0.03370
C1656       C  0.34146812  0.72178948  0.36006166    -0.07820
C1657       C  0.32846203  0.74258885  0.34217481     0.05710
C1658       C  0.31551248  0.76326898  0.36173516    -0.02840
Br1659     Br  0.29569546  0.78979359  0.34037196    -0.02540
H1660       H  0.30637050  0.78043914  0.41292032     0.09620
H1661       H  0.35145562  0.70577590  0.34523610     0.07640
Br1662     Br  0.36156337  0.69533859  0.41884598    -0.02970
C1663       C  0.39310047  0.77477013  0.57772709    -0.09600
C1664       C  0.38448904  0.78557719  0.54678187     0.06590
C1665       C  0.39467431  0.80786595  0.52429795    -0.03370
C1666       C  0.41268663  0.82000747  0.53366438    -0.07820
C1667       C  0.42126158  0.81302243  0.56663994     0.05710
C1668       C  0.41111725  0.78731308  0.58772245    -0.02840
Br1669     Br  0.41957343  0.76636810  0.63112197    -0.02540
H1670       H  0.38555844  0.75665738  0.59476248     0.09620
H1671       H  0.41997064  0.83308935  0.51286478     0.07640
Br1672     Br  0.38558619  0.82046303  0.47842194    -0.02970
C1673       C  0.27276721  0.82294896  0.62866821    -0.09600
C1674       C  0.26677048  0.85662427  0.61775613     0.06590
C1675       C  0.27853965  0.87387966  0.59216804    -0.03370
C1676       C  0.29336065  0.85583356  0.57572786    -0.07820
C1677       C  0.29851780  0.82240213  0.58652498     0.05710
C1678       C  0.28876428  0.80680606  0.61472946    -0.02840
Br1679     Br  0.29596097  0.76296452  0.63538084    -0.02540
H1680       H  0.26573379  0.80928639  0.64991952     0.09620
H1681       H  0.30122083  0.86833591  0.55457693     0.07640
Br1682     Br  0.27643314  0.92177189  0.57713689    -0.02970
C1683       C  0.06906515  0.89066271  0.63079457    -0.09600
C1684       C  0.05523771  0.88913738  0.60372228     0.06590
C1685       C  0.04213781  0.86014091  0.60649090    -0.03370
C1686       C  0.04255134  0.83776555  0.63578581    -0.07820
C1687       C  0.05845576  0.83503879  0.65783828     0.05710
C1688       C  0.07189380  0.86340897  0.65491058    -0.02840
Br1689     Br  0.09461772  0.87002897  0.68235512    -0.02540
H1690       H  0.07877408  0.91281824  0.63241376     0.09620
H1691       H  0.03077418  0.81975271  0.63929390     0.07640
Br1692     Br  0.02451299  0.84292827  0.57183009    -0.02970
C1693       C  0.05654505  0.89863032  0.50772430    -0.09600
C1694       C  0.04589449  0.90784929  0.53850898     0.06590
C1695       C  0.02584763  0.91188274  0.53283620    -0.03370
C1696       C  0.01783456  0.90522446  0.49950601    -0.07820
C1697       C  0.02875434  0.89544623  0.46999568     0.05710
C1698       C  0.04836037  0.89193007  0.47458401    -0.02840
Br1699     Br  0.06520211  0.87864187  0.43664970    -0.02540
H1700       H  0.07163649  0.89817763  0.50765447     0.09620
H1701       H  0.00272791  0.90866158  0.49651034     0.07640
Br1702     Br  0.00729516  0.92565425  0.56820150    -0.02970
C1703       C  0.23481565  0.89102770  0.58228509    -0.09600
C1704       C  0.23611420  0.89561805  0.61932684     0.06590
C1705       C  0.22074066  0.91318225  0.63678929    -0.03370
C1706       C  0.20565490  0.92564078  0.61744273    -0.07820
C1707       C  0.20498736  0.92151757  0.58075508     0.05710
C1708       C  0.21967359  0.90354467  0.56310466    -0.02840
Br1709     Br  0.22055303  0.89509720  0.51283735    -0.02540
H1710       H  0.24507319  0.87589344  0.56753078     0.09620
H1711       H  0.19455370  0.93980106  0.63135252     0.07640
Br1712     Br  0.21931999  0.92475528  0.68655053    -0.02970
C1713       C  0.16064504  0.52466524  0.36597503    -0.09600
C1714       C  0.16655611  0.49490546  0.34646086     0.06590
C1715       C  0.17197384  0.96443852  0.36446835    -0.03370
C1716       C  0.17120682  0.96422573  0.40101642    -0.07820
C1717       C  0.16561518  0.49391329  0.42069027     0.05710
C1718       C  0.16021813  0.52456516  0.40287273    -0.02840
Br1719     Br  0.15278152  0.56745242  0.42657033    -0.02540
H1720       H  0.15652040  0.54832173  0.35250717     0.09620
H1721       H  0.17554939  0.94050987  0.41413213     0.07640
Br1722     Br  0.18178439  0.92241691  0.34206772    -0.02970
C1723       C  0.11067663  0.91723435  0.55116529    -0.09600
C1724       C  0.11614843  0.95265315  0.55705868     0.06590
C1725       C  0.10310036  0.97531034  0.57338643    -0.03370
C1726       C  0.08478952  0.96343839  0.58013735    -0.07820
C1727       C  0.07784051  0.92946594  0.56919270     0.05710
C1728       C  0.09216683  0.90518805  0.55850430    -0.02840
Br1729     Br  0.08803369  0.85493802  0.55463550    -0.02540
H1730       H  0.12093243  0.89850186  0.54111104     0.09620
H1731       H  0.07631758  0.98191074  0.59504467     0.07640
Br1732     Br  0.10902630  0.52290762  0.58839982    -0.02970
C1733       C  0.03740345  0.51504004  0.57651389    -0.09600
C1734       C  0.03112718  0.51962351  0.61132827     0.06590
C1735       C  0.03222227  0.49086406  0.63444523    -0.03370
C1736       C  0.03961730  0.45854401  0.62236936    -0.07820
C1737       C  0.04609614  0.95367079  0.58719085     0.05710
C1738       C  0.04472523  0.98325364  0.56423765    -0.02840
Br1739     Br  0.05454768  0.98506647  0.51656594    -0.02540
H1740       H  0.03677121  0.53676855  0.55836047     0.09620
H1741       H  0.04007841  0.93737501  0.64105320     0.07640
Br1742     Br  0.02341076  0.49317503  0.68253205    -0.02970
C1743       C  0.04710834  0.75955458  0.63914002    -0.09600
C1744       C  0.05067122  0.76830198  0.67519511     0.06590
C1745       C  0.04814794  0.73985893  0.69941189    -0.03370
C1746       C  0.03998154  0.70774340  0.68852460    -0.07820
C1747       C  0.03376596  0.70222441  0.65404823     0.05710
C1748       C  0.03777601  0.72813229  0.62893203    -0.02840
Br1749     Br  0.03130755  0.72141319  0.58011839    -0.02540
H1750       H  0.05144214  0.77688083  0.61824257     0.09620
H1751       H  0.03748383  0.68741589  0.70784656     0.07640
Br1752     Br  0.05372688  0.74163588  0.74877384    -0.02970
C1753       C  0.96979705  0.60056921  0.47713416    -0.09600
C1754       C  0.95071033  0.58910654  0.47662329     0.06590
C1755       C  0.94274589  0.58050055  0.51053528    -0.03370
C1756       C  0.95240591  0.58978892  0.54175102    -0.07820
C1757       C  0.97077100  0.60401837  0.54121076     0.05710
C1758       C  0.97962033  0.60859918  0.50811349    -0.02840
Br1759     Br  0.00510543  0.62593257  0.50192766    -0.02540
H1760       H  0.97712859  0.60534427  0.45281426     0.09620
H1761       H  0.94594289  0.58347161  0.56694254     0.07640
Br1762     Br  0.92163067  0.54932228  0.51964583    -0.02970
C1763       C  0.95178804  0.01671221  0.44315918    -0.09600
C1764       C  0.95419002  0.54914535  0.42552673     0.06590
C1765       C  0.96888887  0.54986047  0.39938975    -0.03370
C1766       C  0.97730646  0.51832436  0.38737019    -0.07820
C1767       C  0.97271243  0.98573942  0.40228378     0.05710
C1768       C  0.96026890  0.98549086  0.43146743    -0.02840
Br1769     Br  0.95491802  0.94394987  0.45827157    -0.02540
H1770       H  0.94238590  0.01512422  0.46565396     0.09620
H1771       H  0.98817386  0.51951761  0.36706929     0.07640
Br1772     Br  0.98229276  0.59144233  0.38508202    -0.02970
C1773       C  0.82335887  0.01338451  0.61590315    -0.09600
C1774       C  0.83532647  0.99120435  0.59606895     0.06590
C1775       C  0.84644271  0.96651865  0.61396755    -0.03370
C1776       C  0.84543343  0.96478008  0.65095032    -0.07820
C1777       C  0.83361738  0.98743834  0.67056667     0.05710
C1778       C  0.82232222  0.01164278  0.65256450    -0.02840
Br1779     Br  0.80417368  0.54172203  0.67587792    -0.02540
H1780       H  0.81438028  0.53202568  0.60276566     0.09620
H1781       H  0.85421290  0.94614130  0.66448312     0.07640
Br1782     Br  0.86380607  0.93558399  0.59002805    -0.02970
C1783       C  0.88794534  0.57694065  0.46374686    -0.09600
C1784       C  0.88307808  0.54231136  0.45322438     0.06590
C1785       C  0.89584174  0.52391769  0.43123928    -0.03370
C1786       C  0.91374563  0.53837668  0.42427475    -0.07820
C1787       C  0.92032737  0.57002443  0.44099204     0.05710
C1788       C  0.90607076  0.59115541  0.45727584    -0.02840
Br1789     Br  0.91027127  0.63807265  0.47496963    -0.02540
H1790       H  0.87787860  0.59269839  0.47864929     0.09620
H1791       H  0.92257817  0.52391151  0.40583376     0.07640
Br1792     Br  0.88986976  0.97928327  0.40912769    -0.02970
C1793       C  0.76581401  0.59709030  0.43332739    -0.09600
C1794       C  0.76528132  0.59518253  0.39576670     0.06590
C1795       C  0.77991614  0.57505888  0.37880403    -0.03370
C1796       C  0.79373227  0.55888481  0.39872967    -0.07820
C1797       C  0.79413431  0.56218143  0.43553173     0.05710
C1798       C  0.77974215  0.58101968  0.45293180    -0.02840
Br1799     Br  0.77803385  0.58715177  0.50344433    -0.02540
H1800       H  0.75613013  0.61290263  0.44868126     0.09620
H1801       H  0.80460687  0.54399689  0.38497003     0.07640
Br1802     Br  0.78380906  0.56930568  0.32863086    -0.02970
C1803       C  0.46210890  0.73196505  0.58061181    -0.09600
C1804       C  0.47182767  0.73250264  0.61256036     0.06590
C1805       C  0.47228503  0.76417965  0.63275771    -0.03370
C1806       C  0.46294126  0.79432477  0.62085873    -0.07820
C1807       C  0.45279136  0.79400422  0.58870819     0.05710
C1808       C  0.45307854  0.76177710  0.56818577    -0.02840
Br1809     Br  0.44262027  0.75572897  0.52149306    -0.02540
H1810       H  0.46206898  0.70820618  0.56429865     0.09620
H1811       H  0.46363154  0.81783754  0.63726037     0.07640
Br1812     Br  0.48461012  0.76753860  0.67773444    -0.02970
C1813       C  0.47600143  0.48097324  0.66893122    -0.09600
C1814       C  0.45658171  0.48165757  0.67869194     0.06590
C1815       C  0.44886359  0.51633403  0.68443813    -0.03370
C1816       C  0.45876914  0.54629073  0.67325995    -0.07820
C1817       C  0.47727199  0.54479864  0.66011472     0.05710
C1818       C  0.48614341  0.51156710  0.65905190    -0.02840
Br1819     Br  0.51179557  0.50550454  0.64339938    -0.02540
H1820       H  0.48313608  0.95590365  0.66733055     0.09620
H1821       H  0.45217637  0.57176249  0.67695991     0.07640
Br1822     Br  0.42755127  0.52947386  0.71403878    -0.02970
C1823       C  0.53806826  0.63324288  0.47734813    -0.09600
C1824       C  0.54937782  0.66401724  0.47279153     0.06590
C1825       C  0.55039419  0.68777452  0.50267274    -0.03370
C1826       C  0.54179334  0.67926646  0.53479070    -0.07820
C1827       C  0.53109203  0.64846983  0.53883044     0.05710
C1828       C  0.52904297  0.62549457  0.50951473    -0.02840
Br1829     Br  0.51451803  0.58256654  0.51179504    -0.02540
H1830       H  0.53564907  0.61494033  0.45571170     0.09620
H1831       H  0.54311217  0.69767056  0.55688553     0.07640
Br1832     Br  0.56372422  0.73229139  0.50432620    -0.02970
C1833       C  0.55824578  0.73979771  0.42271319    -0.09600
C1834       C  0.54895941  0.70648017  0.42390383     0.06590
C1835       C  0.52923073  0.70629248  0.41544713    -0.03370
C1836       C  0.52022755  0.73718690  0.40510741    -0.07820
C1837       C  0.52983481  0.76963027  0.40368001     0.05710
C1838       C  0.54909823  0.77066044  0.41306537    -0.02840
Br1839     Br  0.56408644  0.81325599  0.41473623    -0.02540
H1840       H  0.57269676  0.74313569  0.43098529     0.09620
H1841       H  0.50533693  0.73578851  0.39853199     0.07640
Br1842     Br  0.51299272  0.66529587  0.41607962    -0.02970
C1843       C  0.74102631  0.67883835  0.40583997    -0.09600
C1844       C  0.73935468  0.64184379  0.40145296     0.06590
C1845       C  0.72436325  0.62454652  0.42045705    -0.03370
C1846       C  0.71120076  0.64419606  0.43981716    -0.07820
C1847       C  0.71244496  0.68077471  0.44110590     0.05710
C1848       C  0.72784679  0.69800907  0.42530629    -0.02840
Br1849     Br  0.73161779  0.74797756  0.42910138    -0.02540
H1850       H  0.75161999  0.69410638  0.39221147     0.09620
H1851       H  0.69949364  0.63090562  0.45282881     0.07640
Br1852     Br  0.72051172  0.57423548  0.42171484    -0.02970
C1853       C  0.67989838  0.73537929  0.61260145    -0.09600
C1854       C  0.66772772  0.75657392  0.59314851     0.06590
C1855       C  0.65553892  0.77992653  0.61160804    -0.03370
C1856       C  0.65558662  0.78102090  0.64870509    -0.07820
C1857       C  0.66744699  0.75897102  0.66783320     0.05710
C1858       C  0.67992031  0.73639251  0.64933112    -0.02840
Br1859     Br  0.69820520  0.70741072  0.67217789    -0.02540
H1860       H  0.68965955  0.71775067  0.59919671     0.09620
H1861       H  0.64600371  0.79857494  0.66266086     0.07640
Br1862     Br  0.63814985  0.81017141  0.58834146    -0.02970
C1863       C  0.61188910  0.70522731  0.42365456    -0.09600
C1864       C  0.61933465  0.70065983  0.45731241     0.06590
C1865       C  0.60876039  0.68151413  0.48203446    -0.03370
C1866       C  0.59024795  0.67086237  0.47423826    -0.07820
C1867       C  0.58141296  0.67888913  0.44179081     0.05710
C1868       C  0.59363172  0.69307256  0.41504038    -0.02840
Br1869     Br  0.58659833  0.70061071  0.36684856    -0.02540
H1870       H  0.62039665  0.71838167  0.40380999     0.09620
H1871       H  0.58274361  0.65695109  0.49472471     0.07640
Br1872     Br  0.61830298  0.67149438  0.52814465    -0.02970
C1873       C  0.52071712  0.98653056  0.37389715    -0.09600
C1874       C  0.52468474  0.95563248  0.35450384     0.06590
C1875       C  0.53723336  0.95773124  0.32565501    -0.03370
C1876       C  0.54624898  0.98956233  0.31807195    -0.07820
C1877       C  0.54399284  0.02043473  0.33922647     0.05710
C1878       C  0.52976852  0.01884279  0.36636608    -0.02840
Br1879     Br  0.51927776  0.55854010  0.39177140    -0.02540
H1880       H  0.51030898  0.98559254  0.39503069     0.09620
H1881       H  0.55584155  0.98969778  0.29582050     0.07640
Br1882     Br  0.54233569  0.91850045  0.29434126    -0.02970
C1883       C  0.55184602  0.64748741  0.37351185    -0.09600
C1884       C  0.55801149  0.64121545  0.40831306     0.06590
C1885       C  0.56443727  0.60635716  0.41451224    -0.03370
C1886       C  0.56234492  0.57960143  0.38870429    -0.07820
C1887       C  0.55543263  0.58562271  0.35440817     0.05710
C1888       C  0.55172917  0.62161281  0.34655906    -0.02840
Br1889     Br  0.55039202  0.64172045  0.30016850    -0.02540
H1890       H  0.54844819  0.67385590  0.36567947     0.09620
H1891       H  0.56653627  0.55334794  0.39553742     0.07640
Br1892     Br  0.57618143  0.59141103  0.45731459    -0.02970
C1893       C  0.98267247  0.76459785  0.35411011    -0.09600
C1894       C  0.97302460  0.79684261  0.35399273     0.06590
C1895       C  0.95353612  0.79583489  0.34625602    -0.03370
C1896       C  0.94443939  0.76385499  0.33825395    -0.07820
C1897       C  0.95358103  0.73065416  0.33922806     0.05710
C1898       C  0.97341244  0.73216389  0.34650889    -0.02840
Br1899     Br  0.98929576  0.69139520  0.34493700    -0.02540
H1900       H  0.99771898  0.76459332  0.35938221     0.09620
H1901       H  0.93008302  0.76635798  0.32954205     0.07640
Br1902     Br  0.93780762  0.83696878  0.34558710    -0.02970
C1903       C  0.93399137  0.60719962  0.37897814    -0.09600
C1904       C  0.94235150  0.61332616  0.41250043     0.06590
C1905       C  0.94923106  0.64872808  0.41839386    -0.03370
C1906       C  0.95054838  0.67256523  0.39024977    -0.07820
C1907       C  0.94265798  0.66593273  0.35648302     0.05710
C1908       C  0.93253299  0.63331236  0.35308831    -0.02840
Br1909     Br  0.91707684  0.62033482  0.31311900    -0.02540
H1910       H  0.92778767  0.58165038  0.37295107     0.09620
H1911       H  0.95637788  0.69824838  0.39655649     0.07640
Br1912     Br  0.95457517  0.67181220  0.46309916    -0.02970
C1913       C  0.10663457  0.78725310  0.73658958    -0.09600
C1914       C  0.11706984  0.77265454  0.70877271     0.06590
C1915       C  0.10900009  0.77031778  0.67521646    -0.03370
C1916       C  0.09069553  0.78296791  0.67000393    -0.07820
C1917       C  0.07927631  0.79682833  0.69806254     0.05710
C1918       C  0.08797752  0.79846191  0.73246389    -0.02840
Br1919     Br  0.07742531  0.81237751  0.77757839    -0.02540
H1920       H  0.11307196  0.78892890  0.76252019     0.09620
H1921       H  0.08513875  0.78143018  0.64343703     0.07640
Br1922     Br  0.12270203  0.75130482  0.63548161    -0.02970
C1923       C  0.21335263  0.80494931  0.65963617    -0.09600
C1924       C  0.20994861  0.81019767  0.69562302     0.06590
C1925       C  0.22200457  0.83265470  0.71524219    -0.03370
C1926       C  0.23633770  0.85125390  0.69797345    -0.07820
C1927       C  0.23886759  0.84877978  0.66086256     0.05710
C1928       C  0.22758830  0.82320190  0.64225704    -0.02840
Br1929     Br  0.22980864  0.81070152  0.59301557    -0.02540
H1930       H  0.20481557  0.78619865  0.64460432     0.09620
H1931       H  0.24418313  0.87008703  0.71388769     0.07640
Br1932     Br  0.21887128  0.84181233  0.76502052    -0.02970
C1933       C  0.41418410  0.96728667  0.66727857    -0.09600
C1934       C  0.42467068  0.95100142  0.69424313     0.06590
C1935       C  0.41403619  0.93882273  0.72416002    -0.03370
C1936       C  0.39546390  0.94997235  0.72948763    -0.07820
C1937       C  0.38629907  0.97096354  0.70510311     0.05710
C1938       C  0.39543216  0.97811041  0.67283524    -0.02840
Br1939     Br  0.38312266  0.50253798  0.63569520    -0.02540
H1940       H  0.42113385  0.47395093  0.64264638     0.09620
H1941       H  0.38798384  0.94184191  0.75314008     0.07640
Br1942     Br  0.42130150  0.90274845  0.75667002    -0.02970
C1943       C  0.28328949  0.95226288  0.67443559    -0.09600
C1944       C  0.29637579  0.93304375  0.69317957     0.06590
C1945       C  0.29265635  0.89797957  0.70106879    -0.03370
C1946       C  0.27659730  0.88174979  0.68709046    -0.07820
C1947       C  0.26379321  0.89974035  0.66491879     0.05710
C1948       C  0.26697378  0.93674012  0.66092747    -0.02840
Br1949     Br  0.25176770  0.97044913  0.63734371    -0.02540
H1950       H  0.28584162  0.98015466  0.67034536     0.09620
H1951       H  0.27484146  0.85389566  0.69178890     0.07640
Br1952     Br  0.30991564  0.87032621  0.72760576    -0.02970
C1953       C  0.78474555  0.66702212  0.30476265    -0.09600
C1954       C  0.79820137  0.68292611  0.32688349     0.06590
C1955       C  0.79635828  0.67955251  0.36353222    -0.03370
C1956       C  0.78089248  0.66134320  0.37716554    -0.07820
C1957       C  0.76687022  0.64506426  0.35542228     0.05710
C1958       C  0.76934464  0.64814731  0.31788950    -0.02840
Br1959     Br  0.75521361  0.62595364  0.27986193    -0.02540
H1960       H  0.78611013  0.66957725  0.27637551     0.09620
H1961       H  0.77995301  0.65929609  0.40562600     0.07640
Br1962     Br  0.81433111  0.69860552  0.39679124    -0.02970
C1963       C  0.89092326  0.73007721  0.33817663    -0.09600
C1964       C  0.88447571  0.72864422  0.30341047     0.06590
C1965       C  0.89580749  0.71287458  0.27720900    -0.03370
C1966       C  0.91359680  0.70012112  0.28563528    -0.07820
C1967       C  0.92134778  0.70381227  0.32006900     0.05710
C1968       C  0.90881921  0.71726040  0.34699636    -0.02840
Br1969     Br  0.91525291  0.72320113  0.39597427    -0.02540
H1970       H  0.88188115  0.74104832  0.35873993     0.09620
H1971       H  0.92111795  0.68713081  0.26433549     0.07640
Br1972     Br  0.88812464  0.70978412  0.22859463    -0.02970
C1973       C  0.70855689  0.60381123  0.31550834    -0.09600
C1974       C  0.70999925  0.56780992  0.30918084     0.06590
C1975       C  0.72577916  0.54968458  0.32076686    -0.03370
C1976       C  0.73869307  0.56639135  0.34284457    -0.07820
C1977       C  0.73806406  0.60300480  0.34945591     0.05710
C1978       C  0.72279003  0.62197671  0.33381875    -0.02840
Br1979     Br  0.72068095  0.67251302  0.33284026    -0.02540
H1980       H  0.69652273  0.61793024  0.30549398     0.09620
H1981       H  0.74903565  0.54989227  0.35470689     0.07640
Br1982     Br  0.73090727  0.00251727  0.30567382    -0.02970
C1983       C  0.58891022  0.57175086  0.30838956    -0.09600
C1984       C  0.57728460  0.54568469  0.32408198     0.06590
C1985       C  0.58677439  0.01535501  0.33703116    -0.03370
C1986       C  0.60521124  0.00804823  0.32564147    -0.07820
C1987       C  0.61555146  0.53194699  0.30535508     0.05710
C1988       C  0.60772799  0.56522449  0.29891872    -0.02840
Br1989     Br  0.62101789  0.60177367  0.27414333    -0.02540
H1990       H  0.58290148  0.59655239  0.30089162     0.09620
H1991       H  0.61180937  0.98390134  0.33387594     0.07640
Br1992     Br  0.57796948  0.98530374  0.37448630    -0.02970
C1993       C  0.54495950  0.56686681  0.22635614    -0.09600
C1994       C  0.52658466  0.58004890  0.22816567     0.06590
C1995       C  0.51741854  0.58153373  0.26127965    -0.03370
C1996       C  0.52723743  0.57265312  0.29185155    -0.07820
C1997       C  0.54636683  0.56171685  0.29097691     0.05710
C1998       C  0.55444430  0.55564849  0.25645917    -0.02840
Br1999     Br  0.57580644  0.52642229  0.24446115    -0.02540
H2000       H  0.55160624  0.56314046  0.20067445     0.09620
H2001       H  0.51997558  0.57550929  0.31693853     0.07640
Br2002     Br  0.49187017  0.59719253  0.26715525    -0.02970
C2003       C  0.53517147  0.62098518  0.97643491    -0.09600
C2004       C  0.55156328  0.60008378  0.97459688     0.06590
C2005       C  0.56111276  0.59716568  0.00796871    -0.03370
C2006       C  0.55105521  0.60206464  0.03967026    -0.07820
C2007       C  0.53271439  0.61547038  0.04021390     0.05710
C2008       C  0.52538876  0.62765364  0.00819699    -0.02840
Br2009     Br  0.50242691  0.65405117  0.00551471    -0.02540
H2010       H  0.52985174  0.63276046  0.95280508     0.09620
H2011       H  0.55802959  0.59674590  0.06439843     0.07640
Br2012     Br  0.58810953  0.59732611  0.01604342    -0.02970
C2013       C  0.67676181  0.03083847  0.10664107    -0.09600
C2014       C  0.66627319  0.00617484  0.08664360     0.06590
C2015       C  0.65622393  0.97924105  0.10448467    -0.03370
C2016       C  0.65649313  0.97827696  0.14153296    -0.07820
C2017       C  0.66665870  0.00360831  0.16134136     0.05710
C2018       C  0.67719779  0.52962119  0.14338578    -0.02840
Br2019     Br  0.69374174  0.56312435  0.16666673    -0.02540
H2020       H  0.68499221  0.55107388  0.09362913     0.09620
H2021       H  0.64848940  0.95791763  0.15493071     0.07640
Br2022     Br  0.64152981  0.94345179  0.08050117    -0.02970
C2023       C  0.60087941  0.52629557  0.96419628    -0.09600
C2024       C  0.61633367  0.54389051  0.94934597     0.06590
C2025       C  0.61313064  0.57319199  0.92803798    -0.03370
C2026       C  0.59470877  0.58547554  0.92318926    -0.07820
C2027       C  0.57899222  0.57048229  0.94109516     0.05710
C2028       C  0.58250687  0.53916870  0.96093281    -0.02840
Br2029     Br  0.56350183  0.51351588  0.98737647    -0.02540
H2030       H  0.60324866  0.00355505  0.98045121     0.09620
H2031       H  0.59307707  0.60724812  0.90558855     0.07640
Br2032     Br  0.63349925  0.59679021  0.90398941    -0.02970
C2033       C  0.72107060  0.59693512  0.94052434    -0.09600
C2034       C  0.70724786  0.57745254  0.92223665     0.06590
C2035       C  0.70813068  0.57607814  0.88514290    -0.03370
C2036       C  0.72336187  0.59150209  0.86764755    -0.07820
C2037       C  0.73815835  0.61011215  0.88534325     0.05710
C2038       C  0.73573419  0.61475549  0.92291513    -0.02840
Br2039     Br  0.74792522  0.64924757  0.95336579    -0.02540
H2040       H  0.71997450  0.59966690  0.96901580     0.09620
H2041       H  0.72342462  0.58967998  0.83907409     0.07640
Br2042     Br  0.68857032  0.55608572  0.85571022    -0.02970
C2043       C  0.72838964  0.67737449  0.86268642    -0.09600
C2044       C  0.73927330  0.65462236  0.84058790     0.06590
C2045       C  0.73361696  0.65116446  0.80438494    -0.03370
C2046       C  0.71843053  0.67075863  0.79226655    -0.07820
C2047       C  0.70773007  0.69210626  0.81504329     0.05710
C2048       C  0.71282210  0.69538441  0.85068177    -0.02840
Br2049     Br  0.69962373  0.72434263  0.88481673    -0.02540
H2050       H  0.73187302  0.68054082  0.89033758     0.09620
H2051       H  0.71436276  0.66810415  0.76477502     0.07640
Br2052     Br  0.74278122  0.61827785  0.76911120    -0.02970
C2053       C  0.76090197  0.56695017  0.83670385    -0.09600
C2054       C  0.76419612  0.60396039  0.83613890     0.06590
C2055       C  0.77975548  0.61553339  0.81448622    -0.03370
C2056       C  0.79192310  0.59130670  0.79865794    -0.07820
C2057       C  0.78823395  0.55536248  0.79994072     0.05710
C2058       C  0.77158130  0.54345309  0.81632902    -0.02840
Br2059     Br  0.76255208  0.99565307  0.81223634    -0.02540
H2060       H  0.75024830  0.55490905  0.85299111     0.09620
H2061       H  0.80441183  0.60068136  0.78472338     0.07640
Br2062     Br  0.78585491  0.66291302  0.80218009    -0.02970
C2063       C  0.96744940  0.64560568  0.24566455    -0.09600
C2064       C  0.96840811  0.67245074  0.22115538     0.06590
C2065       C  0.96209025  0.70606826  0.23140264    -0.03370
C2066       C  0.95449782  0.71167533  0.26527950    -0.07820
C2067       C  0.95304524  0.68468858  0.29098591     0.05710
C2068       C  0.96074417  0.65125204  0.28020304    -0.02840
Br2069     Br  0.96558697  0.61108632  0.30794849    -0.02540
H2070       H  0.97308605  0.62002172  0.23825728     0.09620
H2071       H  0.94901957  0.73764220  0.27115995     0.07640
Br2072     Br  0.96254025  0.74521130  0.19991703    -0.02970
C2073       C  0.96966332  0.64392622  0.96813830    -0.09600
C2074       C  0.95134429  0.65850308  0.96704741     0.06590
C2075       C  0.94092560  0.65565158  0.99966020    -0.03370
C2076       C  0.95056154  0.65265367  0.03172349    -0.07820
C2077       C  0.97006401  0.64684858  0.03246542     0.05710
C2078       C  0.97931002  0.63963024  0.00001149    -0.02840
Br2079     Br  0.00480423  0.62277696  0.99693796    -0.02540
H2080       H  0.97692879  0.63695104  0.94376434     0.09620
H2081       H  0.94255528  0.65330293  0.05624791     0.07640
Br2082     Br  0.91438126  0.64375106  0.00371141    -0.02970
C2083       C  0.78030447  0.62875063  0.90285688    -0.09600
C2084       C  0.76844307  0.64991531  0.88189329     0.06590
C2085       C  0.77312693  0.68682049  0.88019750    -0.03370
C2086       C  0.78786487  0.70056253  0.90060148    -0.07820
C2087       C  0.79847094  0.67955328  0.92273404     0.05710
C2088       C  0.79477145  0.64328304  0.92372145    -0.02840
Br2089     Br  0.80921260  0.61249298  0.95249657    -0.02540
H2090       H  0.77775155  0.60058672  0.90401098     0.09620
H2091       H  0.79110762  0.72850685  0.89923485     0.07640
Br2092     Br  0.76327310  0.72169433  0.84864325    -0.02970
C2093       C  0.82614974  0.72650515  0.15316060    -0.09600
C2094       C  0.83274025  0.75786686  0.16936836     0.06590
C2095       C  0.84006163  0.78483687  0.14785072    -0.03370
C2096       C  0.84050771  0.77991649  0.11104552    -0.07820
C2097       C  0.83377841  0.74849403  0.09497142     0.05710
C2098       C  0.82657172  0.72152540  0.11667615    -0.02840
Br2099     Br  0.81684638  0.67696782  0.09934258    -0.02540
H2100       H  0.82054866  0.70524619  0.16900776     0.09620
H2101       H  0.84603626  0.80101027  0.09490383     0.07640
Br2102     Br  0.84938581  0.82900331  0.16649506    -0.02970
C2103       C  0.92040486  0.71395680  0.96200688    -0.09600
C2104       C  0.92269712  0.68538433  0.93741814     0.06590
C2105       C  0.90579406  0.67213862  0.92077420    -0.03370
C2106       C  0.88809111  0.68503895  0.93145839    -0.07820
C2107       C  0.88634548  0.71256475  0.95624829     0.05710
C2108       C  0.90269509  0.72762689  0.97100547    -0.02840
Br2109     Br  0.90157266  0.76498930  0.00573788    -0.02540
H2110       H  0.93269666  0.72549609  0.97488439     0.09620
H2111       H  0.87540795  0.67424611  0.91924471     0.07640
Br2112     Br  0.90416204  0.64150549  0.87992814    -0.02970
C2113       C  0.47616879  0.89634180  0.75942463    -0.09600
C2114       C  0.47272634  0.91765353  0.78948639     0.06590
C2115       C  0.46232617  0.94874564  0.78503894    -0.03370
C2116       C  0.45489338  0.95655380  0.75201067    -0.07820
C2117       C  0.45678340  0.93402373  0.72196674     0.05710
C2118       C  0.46894492  0.90444353  0.72592668    -0.02840
Br2119     Br  0.47905076  0.87578673  0.68807151    -0.02540
H2120       H  0.48503271  0.87339218  0.76177854     0.09620
H2121       H  0.44667425  0.98012991  0.75037995     0.07640
Br2122     Br  0.45731401  0.98236481  0.82245388    -0.02970
C2123       C  0.51776028  0.01398696  0.92179711    -0.09600
C2124       C  0.52781990  0.98606642  0.90629521     0.06590
C2125       C  0.54659897  0.99255157  0.89556786    -0.03370
C2126       C  0.55506563  0.02543735  0.90274145    -0.07820
C2127       C  0.54601994  0.55240970  0.92339742     0.05710
C2128       C  0.52604615  0.54724379  0.92800235    -0.02840
Br2129     Br  0.50724318  0.58325595  0.92880431    -0.02540
H2130       H  0.50271226  0.01071385  0.92667519     0.09620
H2131       H  0.56935847  0.02914017  0.89298139     0.07640
Br2132     Br  0.56203496  0.95748620  0.87263552    -0.02970
C2133       C  0.43748995  0.89699782  0.01452123    -0.09600
C2134       C  0.44837637  0.90172083  0.04576797     0.06590
C2135       C  0.46747230  0.88979305  0.04346970    -0.03370
C2136       C  0.47566805  0.88156188  0.01063252    -0.07820
C2137       C  0.46551638  0.88395915  0.97911805     0.05710
C2138       C  0.44588286  0.88975861  0.98151967    -0.02840
Br2139     Br  0.42968651  0.89044253  0.94098655    -0.02540
H2140       H  0.42234117  0.90038572  0.01477094     0.09620
H2141       H  0.49060111  0.87539161  0.00966038     0.07640
Br2142     Br  0.48478863  0.88895013  0.08216600    -0.02970
C2143       C  0.46555511  0.96760030  0.06867722    -0.09600
C2144       C  0.45069916  0.95459257  0.09048968     0.06590
C2145       C  0.44444646  0.47797013  0.11825824    -0.03370
C2146       C  0.45443454  0.50926105  0.12594557    -0.07820
C2147       C  0.47043628  0.51905033  0.10637643     0.05710
C2148       C  0.47555626  0.49849925  0.07670828    -0.02840
Br2149     Br  0.49514252  0.51236803  0.04400707    -0.02540
H2150       H  0.46943148  0.95492964  0.04410932     0.09620
H2151       H  0.44996936  0.52554834  0.14821085     0.07640
Br2152     Br  0.42358890  0.46850169  0.14965887    -0.02970
C2153       C  0.35097649  0.52711380  0.89700851    -0.09600
C2154       C  0.33397095  0.51993837  0.91501658     0.06590
C2155       C  0.31708130  0.51567588  0.89584896    -0.03370
C2156       C  0.31754463  0.51681810  0.85914033    -0.07820
C2157       C  0.33463379  0.52209744  0.84086683     0.05710
C2158       C  0.35145945  0.52784468  0.85998370    -0.02840
Br2159     Br  0.37561734  0.53222703  0.83692571    -0.02540
H2160       H  0.36405169  0.53001613  0.91160817     0.09620
H2161       H  0.30450726  0.51253977  0.84467688     0.07640
Br2162     Br  0.29293481  0.50824143  0.91839902    -0.02970
C2163       C  0.38453509  0.93863565  0.07638273    -0.09600
C2164       C  0.38446802  0.96537619  0.05139806     0.06590
C2165       C  0.40160670  0.97654003  0.03668388    -0.03370
C2166       C  0.41841773  0.96058528  0.04657188    -0.07820
C2167       C  0.41920271  0.93334348  0.07209478     0.05710
C2168       C  0.40141304  0.92321318  0.08775994    -0.02840
Br2169     Br  0.39731429  0.89248941  0.12704115    -0.02540
H2170       H  0.37118066  0.93036413  0.08803333     0.09620
H2171       H  0.43124798  0.96946226  0.03354525     0.07640
Br2172     Br  0.40267896  0.51201964  0.00122237    -0.02970
C2173       C  0.27790428  0.88392613  0.08052127    -0.09600
C2174       C  0.26701860  0.90219846  0.10667784     0.06590
C2175       C  0.27239996  0.93801030  0.11410133    -0.03370
C2176       C  0.28779070  0.95289448  0.09684506    -0.07820
C2177       C  0.29808893  0.93422486  0.07149922     0.05710
C2178       C  0.29291886  0.89969806  0.06261175    -0.02840
Br2179     Br  0.30649268  0.87230614  0.02793414    -0.02540
H2180       H  0.27483228  0.85672836  0.07376686     0.09620
H2181       H  0.29153117  0.98019569  0.10265139     0.07640
Br2182     Br  0.26082045  0.97156905  0.14545186    -0.02970
C2183       C  0.27349398  0.82483535  0.13577446    -0.09600
C2184       C  0.26750448  0.85737387  0.15105791     0.06590
C2185       C  0.27835329  0.87062301  0.18032486    -0.03370
C2186       C  0.29259166  0.85023203  0.19469655    -0.07820
C2187       C  0.29786149  0.81815750  0.17927267     0.05710
C2188       C  0.28865931  0.80611713  0.14860008    -0.02840
Br2189     Br  0.29583340  0.76453984  0.12214457    -0.02540
H2190       H  0.26687278  0.81388658  0.11235232     0.09620
H2191       H  0.29991890  0.85987013  0.21807210     0.07640
Br2192     Br  0.27584295  0.91551148  0.20382821    -0.02970
C2193       C  0.21022283  0.93835343  0.15167496    -0.09600
C2194       C  0.20681964  0.93090002  0.18712526     0.06590
C2195       C  0.21876621  0.90734322  0.20429508    -0.03370
C2196       C  0.23418805  0.89300013  0.18616024    -0.07820
C2197       C  0.23833790  0.90108601  0.15062738     0.05710
C2198       C  0.22543200  0.92388574  0.13328166    -0.02840
Br2199     Br  0.22762535  0.94019154  0.08542187    -0.02540
H2200       H  0.20125409  0.95669272  0.13813988     0.09620
H2201       H  0.24256346  0.87436121  0.20022985     0.07640
Br2202     Br  0.21460164  0.89203020  0.25189843    -0.02970
C2203       C  0.01857261  0.82124243  0.75847518    -0.09600
C2204       C  0.02679152  0.84798029  0.77943039     0.06590
C2205       C  0.04240164  0.86652935  0.76540177    -0.03370
C2206       C  0.05121016  0.85411052  0.73429229    -0.07820
C2207       C  0.04546513  0.82231930  0.71722557     0.05710
C2208       C  0.02695130  0.80986603  0.72671836    -0.02840
Br2209     Br  0.00995372  0.78338123  0.69647955    -0.02540
H2210       H  0.00526702  0.80930359  0.76654075     0.09620
H2211       H  0.06377550  0.86776707  0.72572928     0.07640
Br2212     Br  0.05300376  0.90790232  0.78782112    -0.02970
C2213       C  0.95670880  0.76774908  0.89514497    -0.09600
C2214       C  0.97599177  0.77070280  0.90241714     0.06590
C2215       C  0.98513599  0.74157286  0.91663498    -0.03370
C2216       C  0.97471509  0.71141540  0.92548454    -0.07820
C2217       C  0.95494433  0.70759608  0.91931647     0.05710
C2218       C  0.94647960  0.73663387  0.90121549    -0.02840
Br2219     Br  0.92273746  0.73556310  0.87631061    -0.02540
H2220       H  0.94972305  0.78925492  0.88220272     0.09620
H2221       H  0.98312698  0.69096131  0.93565093     0.07640
Br2222     Br  0.01199648  0.74033365  0.92451544    -0.02970
C2223       C  0.04627179  0.88097712  0.98597403    -0.09600
C2224       C  0.03033245  0.86127455  0.97577175     0.06590
C2225       C  0.02327173  0.83548142  0.99853579    -0.03370
C2226       C  0.03297741  0.82764083  0.02921104    -0.07820
C2227       C  0.04984356  0.84560538  0.03958719     0.05710
C2228       C  0.05544117  0.87475669  0.01813580    -0.02840
Br2229     Br  0.07600234  0.90661700  0.02895145    -0.02540
H2230       H  0.05144369  0.90177349  0.96906182     0.09620
H2231       H  0.02649684  0.80763428  0.04530997     0.07640
Br2232     Br  0.00052571  0.80891921  0.98895176    -0.02970
C2233       C  0.04383994  0.73629774  0.08201596    -0.09600
C2234       C  0.03354684  0.73675967  0.11343708     0.06590
C2235       C  0.03299337  0.76804068  0.13385374    -0.03370
C2236       C  0.04244213  0.79845658  0.12217910    -0.07820
C2237       C  0.05163849  0.79952651  0.08879783     0.05710
C2238       C  0.05236916  0.76681419  0.06906294    -0.02840
Br2239     Br  0.06247305  0.76058192  0.02202801    -0.02540
H2240       H  0.04406205  0.71236993  0.06593907     0.09620
H2241       H  0.04223168  0.82124216  0.13958077     0.07640
Br2242     Br  0.01971393  0.77045317  0.17821164    -0.02970
C2243       C  0.21396216  0.81177330  0.10558174    -0.09600
C2244       C  0.20998667  0.82025566  0.07071914     0.06590
C2245       C  0.22165725  0.84460526  0.05320036    -0.03370
C2246       C  0.23657047  0.86085074  0.07124435    -0.07820
C2247       C  0.23996817  0.85470229  0.10742162     0.05710
C2248       C  0.22864520  0.82809238  0.12393538    -0.02840
Br2249     Br  0.23192793  0.81023239  0.17085788    -0.02540
H2250       H  0.20564348  0.79171655  0.11882126     0.09620
H2251       H  0.24453842  0.88032816  0.05685072     0.07640
Br2252     Br  0.21731702  0.85933397  0.00563761    -0.02970
C2253       C  0.16559180  0.70818363  0.86223564    -0.09600
C2254       C  0.16152054  0.73879864  0.84357834     0.06590
C2255       C  0.15664992  0.76988203  0.86237615    -0.03370
C2256       C  0.15723992  0.77051654  0.89906720    -0.07820
C2257       C  0.16244958  0.74064225  0.91769342     0.05710
C2258       C  0.16618095  0.70892279  0.89919342    -0.02840
Br2259     Br  0.17427592  0.66728879  0.92257866    -0.02540
H2260       H  0.16944520  0.68424873  0.84805451     0.09620
H2261       H  0.15400642  0.79484847  0.91317562     0.07640
Br2262     Br  0.14909331  0.81253166  0.83986766    -0.02970
C2263       C  0.08979919  0.82447843  0.03184842    -0.09600
C2264       C  0.08190277  0.82391697  0.06642827     0.06590
C2265       C  0.09366479  0.80959994  0.09328602    -0.03370
C2266       C  0.11143742  0.79530613  0.08481370    -0.07820
C2267       C  0.11857273  0.79571995  0.05030295     0.05710
C2268       C  0.10770591  0.81108527  0.02387901    -0.02840
Br2269     Br  0.11572911  0.81133151  0.97521730    -0.02540
H2270       H  0.08177018  0.83276381  0.00953156     0.09620
H2271       H  0.11990314  0.78419954  0.10554241     0.07640
Br2272     Br  0.08687701  0.80813846  0.14256064    -0.02970
C2273       C  0.95431676  0.61475813  0.84551267    -0.09600
C2274       C  0.94612664  0.58172024  0.85376221     0.06590
C2275       C  0.94073739  0.57832464  0.89012638    -0.03370
C2276       C  0.93990955  0.60802400  0.91287031    -0.07820
C2277       C  0.94555808  0.64231173  0.90254934     0.05710
C2278       C  0.95373298  0.64449327  0.86791119    -0.02840
Br2279     Br  0.96443978  0.68509227  0.84490888    -0.02540
H2280       H  0.96225818  0.61815859  0.82152713     0.09620
H2281       H  0.93434545  0.60413986  0.93923939     0.07640
Br2282     Br  0.93377603  0.53466457  0.91230142    -0.02970
C2283       C  0.98212240  0.98895421  0.86543443    -0.09360
C2284       C  0.97272154  0.95622615  0.86470919     0.06590
C2285       C  0.95347245  0.95509173  0.85510782    -0.03370
C2286       C  0.94466198  0.98545193  0.84347242    -0.07820
C2287       C  0.95440586  0.01819800  0.84080140     0.05710
C2288       C  0.97335302  0.01963001  0.85389192    -0.02840
Br2289     Br  0.98952264  0.06068703  0.85236767    -0.02540
H2290       H  0.99683004  0.99048622  0.87326324     0.09620
H2291       H  0.92998896  0.98248159  0.83635133     0.07640
Br2292     Br  0.93791647  0.91321464  0.85683859    -0.02970
C2293       C  0.97786201  0.55656170  0.74056913    -0.09600
C2294       C  0.97136499  0.58713358  0.72483877     0.06590
C2295       C  0.95594812  0.60472128  0.74041293    -0.03370
C2296       C  0.94731931  0.59115929  0.77095396    -0.07820
C2297       C  0.95456651  0.56154921  0.78888728     0.05710
C2298       C  0.96953981  0.54280896  0.77093885    -0.02840
Br2299     Br  0.97663561  0.99412519  0.77635744    -0.02540
H2300       H  0.98919190  0.54189717  0.72788436     0.09620
H2301       H  0.93519187  0.60487241  0.78190913     0.07640
Br2302     Br  0.94585745  0.64683282  0.72099427    -0.02970
C2303       C  0.89896531  0.50797341  0.78135676    -0.09600
C2304       C  0.88533816  0.51391810  0.80734529     0.06590
C2305       C  0.89019348  0.53468202  0.83691311    -0.03370
C2306       C  0.90841795  0.54928346  0.83976792    -0.07820
C2307       C  0.92316654  0.54172579  0.81515171     0.05710
C2308       C  0.91741417  0.52135072  0.78436428    -0.02840
Br2309     Br  0.93190982  0.51022812  0.74258383    -0.02540
H2310       H  0.89501254  0.49318426  0.75771411     0.09620
H2311       H  0.91056400  0.56601783  0.86235085     0.07640
Br2312     Br  0.87302140  0.54135434  0.87598769    -0.02970
C2313       C  0.56250300  0.67720110  0.89058137    -0.09600
C2314       C  0.55295904  0.67192488  0.85808979     0.06590
C2315       C  0.54434505  0.63785163  0.85300985    -0.03370
C2316       C  0.54731727  0.61098567  0.87734030    -0.07820
C2317       C  0.55735350  0.61595312  0.90933470     0.05710
C2318       C  0.56489280  0.65049061  0.91537416    -0.02840
Br2319     Br  0.57930627  0.66433473  0.95617908    -0.02540
H2320       H  0.56895274  0.70266478  0.89628957     0.09620
H2321       H  0.54088382  0.58588625  0.87073111     0.07640
Br2322     Br  0.52584412  0.62388843  0.81795415    -0.02970
C2323       C  0.55486984  0.76564330  0.86314746    -0.09600
C2324       C  0.54402548  0.73543599  0.85307978     0.06590
C2325       C  0.52501748  0.73490139  0.86616693    -0.03370
C2326       C  0.51650008  0.76629638  0.87818401    -0.07820
C2327       C  0.52666216  0.79826429  0.87964546     0.05710
C2328       C  0.54644658  0.79690980  0.87505513    -0.02840
Br2329     Br  0.56306218  0.83648860  0.88384185    -0.02540
H2330       H  0.57009528  0.76599774  0.86097397     0.09620
H2331       H  0.50150583  0.76599470  0.88436000     0.07640
Br2332     Br  0.50857250  0.69447909  0.86455003    -0.02970
C2333       C  0.55291965  0.66807186  0.77426760    -0.09600
C2334       C  0.54384758  0.69468286  0.79513164     0.06590
C2335       C  0.52783699  0.71106935  0.77911046    -0.03370
C2336       C  0.52033027  0.69714085  0.74766409    -0.07820
C2337       C  0.52877955  0.66931848  0.72902127     0.05710
C2338       C  0.54567387  0.65551988  0.74197612    -0.02840
Br2339     Br  0.55872127  0.61751506  0.71864439    -0.02540
H2340       H  0.56539437  0.65532479  0.78415746     0.09620
H2341       H  0.50795892  0.70940187  0.73660903     0.07640
Br2342     Br  0.51576707  0.75485073  0.79175450    -0.02970
C2343       C  0.58962886  0.69092329  0.82950364    -0.09600
C2344       C  0.57444926  0.71341244  0.82091930     0.06590
C2345       C  0.57934052  0.74306549  0.79960251    -0.03370
C2346       C  0.59825730  0.75150824  0.79224960    -0.07820
C2347       C  0.61299031  0.73011982  0.80300940     0.05710
C2348       C  0.60847335  0.69896508  0.82105341    -0.02840
Br2349     Br  0.62724111  0.66612527  0.83575247    -0.02540
H2350       H  0.58716694  0.66596745  0.84204643     0.09620
H2351       H  0.60146882  0.77480300  0.77705441     0.07640
Br2352     Br  0.56172695  0.77475103  0.77918073    -0.02970
C2353       C  0.03141201  0.53318437  0.12482971    -0.09600
C2354       C  0.02462645  0.55505670  0.15218693     0.06590
C2355       C  0.02692099  0.54420206  0.18709637    -0.03370
C2356       C  0.03627071  0.51279929  0.19408748    -0.07820
C2357       C  0.04431186  0.49083834  0.16718435     0.05710
C2358       C  0.04156299  0.50222886  0.13154009    -0.02840
Br2359     Br  0.05352511  0.48285868  0.08986428    -0.02540
H2360       H  0.02989249  0.54156511  0.09777602     0.09620
H2361       H  0.03754439  0.50667129  0.22153388     0.07640
Br2362     Br  0.01721071  0.57074867  0.22683423    -0.02970
C2363       C  0.04157027  0.91345969  0.13350874    -0.09600
C2364       C  0.05807934  0.92886741  0.14815211     0.06590
C2365       C  0.07527885  0.91700810  0.13133335    -0.03370
C2366       C  0.07565924  0.88585985  0.11091655    -0.07820
C2367       C  0.05918444  0.86721374  0.10053412     0.05710
C2368       C  0.04176580  0.88320864  0.11128989    -0.02840
Br2369     Br  0.01709160  0.86654753  0.09748201    -0.02540
H2370       H  0.02816426  0.92643261  0.13757101     0.09620
H2371       H  0.08925440  0.87861138  0.10006309     0.07640
Br2372     Br  0.09768858  0.94544664  0.12252330    -0.02970
C2373       C  0.03080856  0.92097908  0.21334119    -0.09600
C2374       C  0.04718254  0.94315662  0.21435593     0.06590
C2375       C  0.05306810  0.95334593  0.24983090    -0.03370
C2376       C  0.04451322  0.93862776  0.27978666    -0.07820
C2377       C  0.02861586  0.91674888  0.27745880     0.05710
C2378       C  0.02166713  0.90819924  0.24371622    -0.02840
Br2379     Br  0.99973034  0.87851414  0.23713750    -0.02540
H2380       H  0.02397256  0.91350200  0.18923135     0.09620
H2381       H  0.04942138  0.94686784  0.30576548     0.07640
Br2382     Br  0.06958671  0.99225425  0.26334541    -0.02970
C2383       C  0.08821021  0.94238220  0.20365190    -0.09600
C2384       C  0.07729205  0.96940925  0.18846780     0.06590
C2385       C  0.08656323  0.00298279  0.18394194    -0.03370
C2386       C  0.10537503  0.00778453  0.19471579    -0.07820
C2387       C  0.11574534  0.98060061  0.20945345     0.05710
C2388       C  0.10689750  0.94756505  0.21411436    -0.02840
Br2389     Br  0.11890967  0.90812600  0.23557353    -0.02540
H2390       H  0.08197106  0.91648534  0.20739550     0.09620
H2391       H  0.11217605  0.53319203  0.19087128     0.07640
Br2392     Br  0.07670626  0.54442530  0.16256010    -0.02970
C2393       C  0.47602626  0.73123617  0.13200128    -0.09600
C2394       C  0.47586981  0.70342274  0.15561602     0.06590
C2395       C  0.46651949  0.70745152  0.18800198    -0.03370
C2396       C  0.45644479  0.73806714  0.19539881    -0.07820
C2397       C  0.45554488  0.76654702  0.17155761     0.05710
C2398       C  0.46694549  0.76319535  0.14013721    -0.02840
Br2399     Br  0.47412555  0.80003491  0.10853455    -0.02540
H2400       H  0.48409036  0.72858641  0.10764422     0.09620
H2401       H  0.44894135  0.73935593  0.22029876     0.07640
Br2402     Br  0.46684935  0.67149805  0.22297899    -0.02970
C2403       C  0.45072930  0.86385347  0.16552269    -0.09600
C2404       C  0.44302240  0.83032166  0.15701962     0.06590
C2405       C  0.43374390  0.82769955  0.12361942    -0.03370
C2406       C  0.43300013  0.85677074  0.10098767    -0.07820
C2407       C  0.44092960  0.89027613  0.10954216     0.05710
C2408       C  0.45100506  0.89224739  0.14237418    -0.02840
Br2409     Br  0.46854820  0.92821593  0.15895088    -0.02540
H2410       H  0.45667502  0.86929137  0.19106402     0.09620
H2411       H  0.42577996  0.85316995  0.07600940     0.07640
Br2412     Br  0.42242490  0.78507223  0.10498232    -0.02970
C2413       C  0.47226610  0.82120363  0.21971596    -0.09600
C2414       C  0.45307467  0.80983503  0.22074165     0.06590
C2415       C  0.44517866  0.80499352  0.25552966    -0.03370
C2416       C  0.45474856  0.81790522  0.28540697    -0.07820
C2417       C  0.47303908  0.83205002  0.28334595     0.05710
C2418       C  0.48201628  0.83282741  0.24998080    -0.02840
Br2419     Br  0.50726278  0.85073885  0.24324664    -0.02540
H2420       H  0.47959974  0.82228414  0.19451448     0.09620
H2421       H  0.44823944  0.81462312  0.31118192     0.07640
Br2422     Br  0.42411035  0.77497897  0.26854730    -0.02970
C2423       C  0.41509997  0.75467652  0.18197923    -0.09600
C2424       C  0.42219126  0.78908839  0.18995988     0.06590
C2425       C  0.40881668  0.81419246  0.20290099    -0.03370
C2426       C  0.39010641  0.80403338  0.20952210    -0.07820
C2427       C  0.38381101  0.76916807  0.20432302     0.05710
C2428       C  0.39647612  0.74446330  0.18969371    -0.02840
Br2429     Br  0.38969991  0.69613446  0.17977091    -0.02540
H2430       H  0.42381319  0.73497524  0.16929839     0.09620
H2431       H  0.38053839  0.82364664  0.22029173     0.07640
Br2432     Br  0.41489457  0.86192278  0.21697541    -0.02970
C2433       C  0.23966578  0.66317920  0.07555963    -0.09600
C2434       C  0.23241995  0.63947954  0.10079315     0.06590
C2435       C  0.21259743  0.63042644  0.09693507    -0.03370
C2436       C  0.20079676  0.65141519  0.07688505    -0.07820
C2437       C  0.20785024  0.67928282  0.05722065     0.05710
C2438       C  0.22772451  0.68361235  0.05468844    -0.02840
Br2439     Br  0.23968600  0.71920176  0.02647407    -0.02540
H2440       H  0.25470232  0.66859043  0.07436050     0.09620
H2441       H  0.18571274  0.64586463  0.07671864     0.07640
Br2442     Br  0.19892482  0.58974951  0.11415707    -0.02970
C2443       C  0.27912089  0.61879551  0.09658389    -0.09600
C2444       C  0.26147837  0.60191869  0.10514876     0.06590
C2445       C  0.25860201  0.56814352  0.08875997    -0.03370
C2446       C  0.27340974  0.55146125  0.06997280    -0.07820
C2447       C  0.29125682  0.56753263  0.06538903     0.05710
C2448       C  0.29382703  0.60193365  0.07832696    -0.02840
Br2449     Br  0.31676783  0.62822923  0.07021179    -0.02540
H2450       H  0.28188508  0.64593680  0.10417334     0.09620
H2451       H  0.27096100  0.52524389  0.05900739     0.07640
Br2452     Br  0.23528355  0.54229389  0.08836838    -0.02970
C2453       C  0.27290290  0.70305037  0.17735666    -0.09600
C2454       C  0.28666620  0.68404454  0.19511776     0.06590
C2455       C  0.28606518  0.64747040  0.19368661    -0.03370
C2456       C  0.27205909  0.63048364  0.17403871    -0.07820
C2457       C  0.25877926  0.64869301  0.15278474     0.05710
C2458       C  0.25947201  0.68647082  0.15531620    -0.02840
Br2459     Br  0.24421802  0.72003893  0.13124868    -0.02540
H2460       H  0.27325165  0.73157667  0.17931905     0.09620
H2461       H  0.27256666  0.60205158  0.17334384     0.07640
Br2462     Br  0.30398582  0.61936719  0.21826104    -0.02970
C2463       C  0.20831714  0.60308236  0.20003215    -0.09600
C2464       C  0.21152928  0.56794996  0.20677453     0.06590
C2465       C  0.22821908  0.55232374  0.19402445    -0.03370
C2466       C  0.23936736  0.56963517  0.16864026    -0.07820
C2467       C  0.23481583  0.60389984  0.15749066     0.05710
C2468       C  0.22035007  0.62179775  0.17768984    -0.02840
Br2469     Br  0.21357406  0.67034012  0.17418143    -0.02540
H2470       H  0.19598301  0.61579292  0.21145581     0.09620
H2471       H  0.25168193  0.55630419  0.15820098     0.07640
Br2472     Br  0.23614560  0.50778948  0.21140419    -0.02970
C2473       C  0.24082308  0.56155919  0.59015626    -0.09600
C2474       C  0.23810403  0.59808224  0.59525294     0.06590
C2475       C  0.22279035  0.61334309  0.57584660    -0.03370
C2476       C  0.20928339  0.59183290  0.55917993    -0.07820
C2477       C  0.21165541  0.55567614  0.55653912     0.05710
C2478       C  0.22849731  0.54108755  0.56911377    -0.02840
Br2479     Br  0.23542732  0.49362921  0.55748338    -0.02540
H2480       H  0.25255014  0.54852369  0.60228990     0.09620
H2481       H  0.19674218  0.60347380  0.54812035     0.07640
Br2482     Br  0.21660043  0.66257715  0.57459182    -0.02970
C2483       C  0.25911970  0.68105300  0.59229583    -0.09600
C2484       C  0.26205000  0.64452935  0.59530032     0.06590
C2485       C  0.27688964  0.62972985  0.57353142    -0.03370
C2486       C  0.28982584  0.65159764  0.55618811    -0.07820
C2487       C  0.28734563  0.68780698  0.55559097     0.05710
C2488       C  0.27082948  0.70200336  0.57100105    -0.02840
Br2489     Br  0.26332031  0.74953248  0.56354856    -0.02540
H2490       H  0.24767434  0.69381985  0.60631855     0.09620
H2491       H  0.30204974  0.64017350  0.54306480     0.07640
Br2492     Br  0.28312151  0.58059512  0.56944254    -0.02970
C2493       C  0.28375758  0.61526468  0.64971795    -0.09600
C2494       C  0.26494207  0.60154095  0.64604762     0.06590
C2495       C  0.26028542  0.57284967  0.66857645    -0.03370
C2496       C  0.27436724  0.55700171  0.68898653    -0.07820
C2497       C  0.29320233  0.56944002  0.68928729     0.05710
C2498       C  0.29758979  0.59964621  0.67014354    -0.02840
Br2499     Br  0.32200234  0.62243381  0.67192055    -0.02540
H2500       H  0.28823400  0.63921155  0.63707610     0.09620
H2501       H  0.27053041  0.53427985  0.70454803     0.07640
Br2502     Br  0.23533224  0.55336445  0.67480720    -0.02970
C2503       C  0.22747626  0.68533160  0.69270827    -0.09600
C2504       C  0.20863581  0.67315515  0.69346347     0.06590
C2505       C  0.20394912  0.64271712  0.67417578    -0.03370
C2506       C  0.21754182  0.62656589  0.65283492    -0.07820
C2507       C  0.23629704  0.64029959  0.64817210     0.05710
C2508       C  0.24130500  0.66911364  0.67117422    -0.02840
Br2509     Br  0.26627125  0.68890390  0.67597717    -0.02540
H2510       H  0.23141504  0.70840763  0.70836706     0.09620
H2511       H  0.21286368  0.60251900  0.63991548     0.07640
Br2512     Br  0.17933963  0.62081343  0.67685440    -0.02970
C2513       C  0.72715277  0.92062766  0.89482180    -0.09600
C2514       C  0.73816858  0.89916564  0.91693400     0.06590
C2515       C  0.73501836  0.90309560  0.95434136    -0.03370
C2516       C  0.72042920  0.92487337  0.96689499    -0.07820
C2517       C  0.70821271  0.94174646  0.94390301     0.05710
C2518       C  0.71188802  0.93995135  0.90751198    -0.02840
Br2519     Br  0.69672621  0.96319030  0.87330948    -0.02540
H2520       H  0.72952705  0.92007276  0.86651381     0.09620
H2521       H  0.71796314  0.92733120  0.99512735     0.07640
Br2522     Br  0.74693636  0.87796083  0.99177026    -0.02970
C2523       C  0.77835969  0.86482012  0.93788872    -0.09600
C2524       C  0.76253497  0.84739854  0.92158079     0.06590
C2525       C  0.76154232  0.80998695  0.92575103    -0.03370
C2526       C  0.77579024  0.79261634  0.94396332    -0.07820
C2527       C  0.79193317  0.81025668  0.95647118     0.05710
C2528       C  0.79313749  0.84676768  0.95353927    -0.02840
Br2529     Br  0.81449535  0.87335043  0.97076284    -0.02540
H2530       H  0.77962495  0.89320327  0.93757725     0.09620
H2531       H  0.77481612  0.76424248  0.94655565     0.07640
Br2532     Br  0.74310807  0.77768372  0.90694295    -0.02970
C2533       C  0.70254049  0.82522423  0.86616244    -0.09600
C2534       C  0.70398662  0.82576968  0.82932444     0.06590
C2535       C  0.72042146  0.84060418  0.81426128    -0.03370
C2536       C  0.73501172  0.85352697  0.83591327    -0.07820
C2537       C  0.73464275  0.85094631  0.87339186     0.05710
C2538       C  0.71715235  0.83772157  0.88803948    -0.02840
Br2539     Br  0.71117496  0.83471791  0.93766973    -0.02540
H2540       H  0.68996112  0.81409212  0.87834950     0.09620
H2541       H  0.74628839  0.86702992  0.82233815     0.07640
Br2542     Br  0.72374793  0.84579697  0.76415343    -0.02970
C2543       C  0.79361800  0.88656988  0.83332315    -0.09600
C2544       C  0.79842113  0.92163772  0.84116773     0.06590
C2545       C  0.78742382  0.94025922  0.86626228    -0.03370
C2546       C  0.77104362  0.92489571  0.88027389    -0.07820
C2547       C  0.76591142  0.88917258  0.87329933     0.05710
C2548       C  0.77844743  0.86972215  0.85048240    -0.02840
Br2549     Br  0.77657013  0.81972339  0.84185998    -0.02540
H2550       H  0.80216635  0.87175214  0.81453467     0.09620
H2551       H  0.76339541  0.94079078  0.89936381     0.07640
Br2552     Br  0.79384836  0.98696258  0.88338400    -0.02970
C2553       C  0.77449241  0.88342594  0.42622236    -0.09600
C2554       C  0.76092556  0.90425687  0.40836813     0.06590
C2555       C  0.76282276  0.94169161  0.41305950    -0.03370
C2556       C  0.77734100  0.95579526  0.43418495    -0.07820
C2557       C  0.79100227  0.93463682  0.44955421     0.05710
C2558       C  0.78950082  0.89813367  0.44562255    -0.02840
Br2559     Br  0.80743683  0.86744406  0.46662611    -0.02540
H2560       H  0.77375752  0.85495608  0.42400260     0.09620
H2561       H  0.77869388  0.98420550  0.43700274     0.07640
Br2562     Br  0.74906623  0.97778370  0.38963498    -0.02970
C2563       C  0.73312031  0.85800845  0.44135828    -0.09600
C2564       C  0.73352698  0.85797464  0.40376418     0.06590
C2565       C  0.71908656  0.83734189  0.38643336    -0.03370
C2566       C  0.70478542  0.82074598  0.40588066    -0.07820
C2567       C  0.70451799  0.82172997  0.44279393     0.05710
C2568       C  0.71904494  0.84024004  0.46055656    -0.02840
Br2569     Br  0.71989366  0.84421643  0.51118033    -0.02540
H2570       H  0.74293592  0.87363089  0.45682038     0.09620
H2571       H  0.69422238  0.80519051  0.39180249     0.07640
Br2572     Br  0.71755988  0.82839642  0.33628194    -0.02970
C2573       C  0.76186757  0.82533224  0.35836067    -0.09600
C2574       C  0.76143013  0.86252148  0.35806676     0.06590
C2575       C  0.77618022  0.87967537  0.33817386    -0.03370
C2576       C  0.79019036  0.86006019  0.32054383    -0.07820
C2577       C  0.78973159  0.82335932  0.32036414     0.05710
C2578       C  0.77507020  0.80608747  0.33878306    -0.02840
Br2579     Br  0.77251281  0.75589635  0.34018597    -0.02540
H2580       H  0.75217674  0.81023322  0.37434007     0.09620
H2581       H  0.80136535  0.87361118  0.30627282     0.07640
Br2582     Br  0.77870007  0.92973829  0.33281792    -0.02970
C2583       C  0.70220915  0.93497805  0.35566620    -0.09600
C2584       C  0.70279515  0.93249453  0.31872719     0.06590
C2585       C  0.71864658  0.91679942  0.30250645    -0.03370
C2586       C  0.73348007  0.90452551  0.32307725    -0.07820
C2587       C  0.73311994  0.90604617  0.36064387     0.05710
C2588       C  0.71686314  0.92236573  0.37653170    -0.02840
Br2589     Br  0.71316210  0.92986409  0.42659731    -0.02540
H2590       H  0.69043684  0.94803977  0.36865378     0.09620
H2591       H  0.74457407  0.89130900  0.30864487     0.07640
Br2592     Br  0.72083000  0.90991641  0.25220548    -0.02970
loop_ 
_geom_bond_atom_site_label_1 
_geom_bond_atom_site_label_2 
_geom_bond_distance 
_geom_bond_site_symmetry_2 
_ccdc_geom_bond_type 
C1         C1258   1.577       .  S
C1         C1268   1.581       .  S
C1         C1278   1.577       .  S
C1         C1291   1.571       .  S
C2         C1218   1.570       .  S
C2         C1228   1.573       .  S
C2         C1241   1.588       .  S
C2         C1251   1.583       .  S
C3         C1178   1.572       .  S
C3         C1188   1.571       .  S
C3         C1198   1.587       .  S
C3         C1211   1.584       .  S
C4         C1138   1.576       .  S
C4         C1148   1.596       .  S
C4         C1161   1.581       .  S
C4         C1171   1.564       .  S
C5         C1101   1.577       .  S
C5         C1108   1.585       .  S
C5         C1118   1.585       .  S
C5         C1128   1.561       .  S
C6         C1068   1.604       .  S
C6         C1078   1.615       .  S
C6         C1088   1.560       .  S
C6         C2357   1.579       .  S
C7         C1018   1.587       .  S
C7         C1028   1.577       .  S
C7         C1038   1.574       .  S
C7         C1048   1.585       .  S
C8          C978   1.601       .  S
C8         C1001   1.579       .  S
C8         C1011   1.592       .  S
C8         C2287   1.559       .  S
In9          O11   2.225       .  S
In9          O12   2.275       .  S
In9          O20   2.242   1_554  S
In9          O14   2.197   1_554  S
In9          O16   2.213       .  S
In9          O17   2.252       .  S
In9          O18   2.201       .  S
In9          O21   2.235       .  S
C10          O16   1.261       .  A
C10          O18   1.263       .  A
C10         C948   1.465       .  S
O11          C19   1.258       .  A
O12          C19   1.267       .  A
C13          O20   1.264       .  A
C13          O14   1.260       .  A
C13         C961   1.464       .  S
C15          O17   1.270       .  A
C15          O21   1.257       .  A
C15        C1141   1.488       .  S
C19         C971   1.481       .  S
C22         C931   1.580       .  S
C22         C941   1.575       .  S
C22         C968   1.582       .  S
C22        C1071   1.587       .  S
In23         O25   2.273       .  S
In23         O26   2.241       .  S
In23         O34   2.267       .  S
In23         O28   2.234       .  S
In23         O30   2.263       .  S
In23         O31   2.247       .  S
In23         O32   2.229   1_455  S
In23         O35   2.237   1_455  S
C24          O30   1.262   1_655  A
C24          O32   1.256       .  A
C24         C988   1.485       .  S
O25          C33   1.262       .  A
O26          C33   1.258       .  A
C27          O34   1.263       .  A
C27          O28   1.259       .  A
C27         C928   1.476       .  S
C29          O31   1.262   1_655  A
C29          O35   1.263       .  A
C29         C918   1.482       .  S
C33         C908   1.488       .  S
C36         C878   1.556       .  S
C36         C888   1.563       .  S
C36         C901   1.550       .  S
C36         C951   1.561       .  S
In37         O40   2.268       .  S
In37         O48   2.254   1_554  S
In37         O45   2.281       .  S
In37         O49   2.242       .  S
In37       O1335   2.229   1_545  S
In37       O1338   2.208   1_544  S
In37       O1340   2.216   1_545  S
In37       O1342   2.176   1_545  S
C38          O44   1.266       .  A
C38          O46   1.264       .  A
C38         C881   1.450       .  S
O39       In1333   2.229       .  S
O39          C47   1.258       .  A
O40        C1343   1.268   1_545  A
C41          O48   1.263       .  A
C41        O1338   1.259   1_545  A
C41         C858   1.466       .  S
O42       In1333   2.208   1_556  S
O42        C1337   1.259       .  A
C43          O45   1.269       .  A
C43          O49   1.257       .  A
C43        C1151   1.490       .  S
O44       In1333   2.216       .  S
O46       In1333   2.176       .  S
C47        O1336   1.268       .  A
C47         C868   1.475       .  S
C50         C838   1.588       .  S
C50         C848   1.573       .  S
C50         C871   1.584       .  S
C50        C1111   1.581       .  S
In51         O53   2.285       .  S
In51         O54   2.259       .  S
In51         O62   2.269       .  S
In51         O56   2.233       .  S
In51         O58   2.259       .  S
In51         O59   2.243       .  S
In51         O60   2.246       .  S
In51         O63   2.273       .  S
C52          O58   1.264       .  A
C52          O60   1.262       .  A
C52        C1031   1.493       .  S
O53          C61   1.259       .  A
O54          C61   1.256       .  A
C55          O62   1.264       .  A
C55          O56   1.261       .  A
C55         C841   1.491       .  S
C57          O59   1.257       .  A
C57          O63   1.261       .  A
C57         C828   1.490       .  S
C61         C818   1.497       .  S
In64         O66   2.213       .  S
In64         O67   2.263       .  S
In64         O75   2.243   1_556  S
In64         O69   2.215   1_556  S
In64         O71   2.240       .  S
In64         O72   2.261       .  S
In64         O73   2.204       .  S
In64         O76   2.221       .  S
C65          O71   1.267       .  A
C65          O73   1.264       .  A
C65         C791   1.467       .  S
O66          C74   1.259       .  A
O67          C74   1.269       .  A
C68          O75   1.263       .  A
C68          O69   1.260       .  A
C68         C801   1.481       .  S
C70          O72   1.266       .  A
C70          O76   1.258       .  A
C70         C811   1.473       .  S
C74        C1231   1.473       .  S
C77         C778   1.597       .  S
C77         C808   1.566       .  S
C77         C921   1.592       .  S
C77         C981   1.576       .  S
In78         O80   2.263       .  S
In78         O81   2.247       .  S
In78         O89   2.268   1_655  S
In78         O83   2.268   1_655  S
In78         O85   2.248       .  S
In78         O86   2.238   1_655  S
In78         O87   2.274       .  S
In78         O90   2.262   1_655  S
C79          O85   1.256       .  A
C79          O87   1.263       .  A
C79         C781   1.490       .  S
O80          C88   1.264       .  A
O81          C88   1.255       .  A
C82          O89   1.262       .  A
C82          O83   1.259       .  A
C82        C1058   1.490       .  S
C84          O86   1.257       .  A
C84          O90   1.265       .  A
C84         C938   1.475       .  S
C88         C768   1.482       .  S
C91         C741   1.582       .  S
C91         C748   1.552       .  S
C91         C758   1.569       .  S
C91         C788   1.557       .  S
In92         O94   2.221       .  S
In92         O95   2.241       .  S
In92        O103   2.245   1_556  S
In92        O100   2.258       .  S
In92       O1393   2.222   1_556  S
In92       O1395   2.243       .  S
In92       O1397   2.209       .  S
In92       O1400   2.228       .  S
C93          O99   1.267       .  A
C93         O101   1.259       .  A
C93         C738   1.479       .  S
O94         C102   1.259       .  A
O95         C102   1.266       .  A
C96         O103   1.262       .  A
C96        O1393   1.265       .  A
C96         C718   1.483       .  S
O97       In1388   2.222   1_554  S
O97        C1392   1.265       .  A
C98         O104   1.259       .  A
C98        O1396   1.265       .  A
C98         C728   1.476       .  S
O99       In1388   2.243       .  S
O100       C1394   1.265       .  A
O101      In1388   2.209       .  S
C102       C1221   1.470       .  S
O104      In1388   2.228       .  S
C105        C708   1.590       .  S
C105        C731   1.570       .  S
C105        C831   1.600       .  S
C105       C1021   1.587       .  S
In106       O108   2.248       .  S
In106       O109   2.258       .  S
In106       O117   2.255       .  S
In106       O111   2.250       .  S
In106       O113   2.256       .  S
In106       O114   2.258       .  S
In106       O115   2.254       .  S
In106       O118   2.231       .  S
C107        O113   1.258       .  A
C107        O115   1.262       .  A
C107        C711   1.489       .  S
O108        C116   1.263       .  A
O109        C116   1.261       .  A
C110        O117   1.259       .  A
C110        O111   1.258       .  A
C110       C1098   1.469       .  S
C112        O114   1.261       .  A
C112        O118   1.257       .  A
C112        C851   1.476       .  S
C116        C698   1.485       .  S
In119       O121   2.226       .  S
In119       O124   2.201       .  S
In119       O126   2.231       .  S
In119       O128   2.213       .  S
In119      O1418   2.248   1_545  S
In119      O1426   2.265   1_545  S
In119      O1423   2.251   1_545  S
In119      O1427   2.239   1_545  S
C120        O126   1.257       .  A
C120        O128   1.258       .  A
C120        C678   1.447       .  S
O121        C129   1.257       .  A
O122      In1415   2.248       .  S
O122       C1425   1.265       .  A
C123        O130   1.267       .  A
C123       O1420   1.257       .  A
C123        C721   1.478       .  S
O124       C1419   1.257       .  A
C125        O127   1.261       .  A
C125        O131   1.258       .  A
C125       C1288   1.484       .  S
O127      In1415   2.251       .  S
C129       O1418   1.265   1_545  A
C129        C691   1.477       .  S
O130      In1415   2.265       .  S
O131      In1415   2.238       .  S
In132       O134   2.209       .  S
In132       O135   2.272       .  S
In132       O143   2.274       .  S
In132       O137   2.189       .  S
In132       O139   2.188       .  S
In132       O140   2.273       .  S
In132       O141   2.225       .  S
In132       O144   2.226       .  S
C133        O139   1.260       .  A
C133        O141   1.262       .  A
C133        C658   1.465       .  S
O134        C142   1.255       .  A
O135        C142   1.266       .  A
C136        O143   1.266       .  A
C136        O137   1.255       .  A
C136        C798   1.482       .  S
C138        O140   1.267       .  A
C138        O144   1.256       .  A
C138       C1281   1.477       .  S
C142        C668   1.471       .  S
In145       O150   2.198       .  S
In145       O152   2.215       .  S
In145       O154   2.189       .  S
In145       O157   2.220       .  S
In145      O1443   2.247       .  S
In145      O1444   2.264       .  S
In145      O1452   2.264       .  S
In145      O1449   2.267       .  S
C146        O152   1.260       .  A
C146        O154   1.261       .  A
C146        C648   1.446       .  S
O147      In1441   2.247       .  S
O147        C155   1.257       .  A
O148      In1441   2.264       .  S
O148        C155   1.266       .  A
C149        O156   1.265       .  A
C149       O1446   1.256   1_545  A
C149        C861   1.468       .  S
O150       C1445   1.256       .  A
C151        O157   1.259       .  A
C151       O1449   1.265       .  A
C151        C641   1.478       .  S
O153      In1441   2.267       .  S
O153       C1447   1.265   1_545  A
C155       C1201   1.489       .  S
O156      In1441   2.264       .  S
In158       O160   2.236       .  S
In158       O161   2.246       .  S
In158       O169   2.257       .  S
In158       O163   2.189       .  S
In158       O165   2.212       .  S
In158       O166   2.268       .  S
In158       O167   2.202       .  S
In158       O170   2.221       .  S
C159        O165   1.258       .  A
C159        O167   1.263       .  A
C159        C628   1.463       .  S
O160        C168   1.258       .  A
O161        C168   1.266       .  A
C162        O169   1.265       .  A
C162        O163   1.256       .  A
C162        C958   1.468       .  S
C164        O166   1.265       .  A
C164        O170   1.258       .  A
C164        C618   1.473       .  S
C168       C1208   1.479       .  S
C171        C601   1.595       .  S
C171        C611   1.588       .  S
C171        C671   1.581       .  S
C171        C771   1.590       .  S
C172        C591   1.574       .  S
C172        C688   1.563       .  S
C172        C701   1.570       .  S
C172       C1877   1.568       .  S
In173       O175   2.241       .  S
In173       O176   2.263       .  S
In173       O184   2.262       .  S
In173       O178   2.202       .  S
In173       O180   2.240       .  S
In173       O181   2.246       .  S
In173       O182   2.217       .  S
In173       O185   2.239       .  S
C174        O180   1.259       .  A
C174        O182   1.257       .  A
C174        C551   1.454       .  S
O175        C183   1.257       .  A
O176        C183   1.263       .  A
C177        O184   1.264       .  A
C177        O178   1.259       .  A
C177        C558   1.482       .  S
C179        O181   1.265       .  A
C179        O185   1.259       .  A
C179       C1271   1.482       .  S
C183        C568   1.475       .  S
C186        C528   1.579       .  S
C186        C538   1.582       .  S
C186        C571   1.580       .  S
C186        C588   1.582       .  S
In187       O189   2.264       .  S
In187       O190   2.225       .  S
In187       O198   2.246       .  S
In187       O192   2.267       .  S
In187       O194   2.286       .  S
In187       O195   2.264       .  S
In187       O196   2.251       .  S
In187       O199   2.264       .  S
C188        O194   1.261       .  A
C188        O196   1.263       .  A
C188        C521   1.501       .  S
O189        C197   1.264       .  A
O190        C197   1.262       .  A
C191        O198   1.260       .  A
C191        O192   1.259       .  A
C191        C531   1.485       .  S
C193        O195   1.257       .  A
C193        O199   1.264       .  A
C193        C508   1.489       .  S
C197       C1041   1.484       .  S
C200        C498   1.574       .  S
C200        C548   1.562       .  S
C200        C661   1.559       .  S
C200        C681   1.546       .  S
In201       O204   2.261       .  S
In201       O212   2.256       .  S
In201       O209   2.272       .  S
In201       O213   2.216       .  S
In201      O1499   2.231       .  S
In201      O1502   2.208       .  S
In201      O1504   2.212       .  S
In201      O1506   2.207       .  S
C202        O208   1.263       .  A
C202        O210   1.263       .  A
C202        C501   1.470       .  S
O203      In1497   2.231       .  S
O203        C211   1.260       .  A
O204       C1507   1.268       .  A
C205        O212   1.265       .  A
C205       O1502   1.261       .  A
C205        C478   1.481       .  S
O206      In1497   2.208       .  S
O206       C1501   1.261   1_545  A
C207        O209   1.270       .  A
C207        O213   1.258       .  A
C207       C1261   1.474       .  S
O208      In1497   2.212       .  S
O210      In1497   2.207       .  S
C211       O1500   1.268   1_545  A
C211        C488   1.490       .  S
C214        C458   1.575       .  S
C214        C468   1.583       .  S
C214        C491   1.580       .  S
C214        C608   1.593       .  S
In215       O217   2.290   1_455  S
In215       O218   2.210   1_455  S
In215       O226   2.275   1_455  S
In215       O220   2.225   1_455  S
In215       O222   2.264       .  S
In215       O223   2.270       .  S
In215       O224   2.263       .  S
In215       O227   2.233       .  S
C216        O222   1.258       .  A
C216        O224   1.260       .  A
C216        C451   1.481       .  S
O217        C225   1.265       .  A
O218        C225   1.257       .  A
C219        O226   1.264       .  A
C219        O220   1.256       .  A
C219        C461   1.489       .  S
C221        O223   1.259       .  A
C221        O227   1.259       .  A
C221        C438   1.485       .  S
C225        C998   1.485       .  S
In228       O230   2.220   1_565  S
In228       O231   2.257   1_565  S
In228       O239   2.234   1_565  S
In228       O236   2.237       .  S
In228      O1529   2.177       .  S
In228      O1531   2.198       .  S
In228      O1533   2.199       .  S
In228      O1536   2.232       .  S
C229        O235   1.262       .  A
C229        O237   1.264       .  A
C229        C411   1.466       .  S
O230        C238   1.257       .  A
O231        C238   1.270       .  A
C232        O239   1.263   1_565  A
C232       O1529   1.261       .  A
C232        C421   1.469       .  S
O233      In1524   2.177       .  S
O233       C1528   1.261       .  A
C234        O240   1.259       .  A
C234       O1532   1.267       .  A
C234        C428   1.486       .  S
O235      In1524   2.198       .  S
O236       C1530   1.267       .  A
O237      In1524   2.199       .  S
C238       C1181   1.475       .  S
O240      In1524   2.232       .  S
C241        C388   1.599       .  S
C241        C398   1.591       .  S
C241        C431   1.598       .  S
C241        C441   1.566       .  S
In242       O244   2.264       .  S
In242       O245   2.267       .  S
In242       O253   2.243   1_455  S
In242       O247   2.298       .  S
In242       O249   2.253       .  S
In242       O250   2.274   1_455  S
In242       O251   2.270       .  S
In242       O254   2.256   1_455  S
C243        O249   1.260       .  A
C243        O251   1.262       .  A
C243        C401   1.495       .  S
O244        C252   1.263       .  A
O245        C252   1.261       .  A
C246        O253   1.258       .  A
C246        O247   1.263   1_655  A
C246        C598   1.502       .  S
C248        O250   1.260       .  A
C248        O254   1.259       .  A
C248        C471   1.490       .  S
C252       C1081   1.491       .  S
C255        C378   1.564       .  S
C255        C408   1.551       .  S
C255        C631   1.559       .  S
C255        C651   1.554       .  S
In256       O258   2.224       .  S
In256       O259   2.255       .  S
In256       O267   2.238       .  S
In256       O261   2.202       .  S
In256       O263   2.213       .  S
In256       O264   2.264       .  S
In256       O265   2.203       .  S
In256       O268   2.212       .  S
C257        O263   1.265       .  A
C257        O265   1.261       .  A
C257        C381   1.462       .  S
O258        C266   1.257       .  A
O259        C266   1.271       .  A
C260        O267   1.264       .  A
C260        O261   1.262       .  A
C260        C358   1.472       .  S
C262        O264   1.268       .  A
C262        O268   1.259       .  A
C262        C368   1.481       .  S
C266       C1191   1.478       .  S
C269        C338   1.608       .  S
C269        C348   1.600       .  S
C269        C371   1.596       .  S
C269        C511   1.570       .  S
In270       O272   2.259       .  S
In270       O273   2.259       .  S
In270       O281   2.238       .  S
In270       O275   2.277       .  S
In270       O277   2.277       .  S
In270       O278   2.260       .  S
In270       O279   2.238       .  S
In270       O282   2.248       .  S
C271        O277   1.263       .  A
C271        O279   1.260       .  A
C271        C351   1.483       .  S
O272        C280   1.263       .  A
O273        C280   1.258       .  A
C274        O281   1.257       .  A
C274        O275   1.261       .  A
C274        C578   1.484       .  S
C276        O278   1.262       .  A
C276        O282   1.260       .  A
C276        C541   1.492       .  S
C280       C1121   1.490       .  S
C283        C341   1.589       .  S
C283        C638   1.567       .  S
C283        C821   1.572       .  S
C283       C1814   1.583       .  S
C284        C391   1.589       .  S
C284        C448   1.587       .  S
C284        C621   1.573       .  S
C284        C911   1.569       .  S
In285       O287   2.212       .  S
In285       O290   2.182       .  S
In285       O292   2.213       .  S
In285       O294   2.213       .  S
In285      O1584   2.251       .  S
In285      O1592   2.236       .  S
In285      O1589   2.238       .  S
In285      O1593   2.222       .  S
C286        O292   1.259       .  A
C286        O294   1.264       .  A
C286        C898   1.470       .  S
O287        C295   1.256       .  A
O288      In1581   2.251   1_545  S
O288       C1591   1.265   1_545  A
C289        O296   1.263   1_565  A
C289       O1586   1.255       .  A
C289        C418   1.466       .  S
O290       C1585   1.255       .  A
C291        O293   1.266       .  A
C291        O297   1.257       .  A
C291       C1168   1.467       .  S
O293      In1581   2.238   1_545  S
C295       O1584   1.265       .  A
C295       C1091   1.478       .  S
O296      In1581   2.236   1_545  S
O297      In1581   2.222   1_545  S
In298       O300   2.210       .  S
In298       O301   2.255       .  S
In298       O309   2.253       .  S
In298       O303   2.199       .  S
In298       O305   2.210       .  S
In298       O306   2.250       .  S
In298       O307   2.211       .  S
In298       O310   2.218       .  S
C299        O305   1.263       .  A
C299        O307   1.261       .  A
C299        C891   1.464       .  S
O300        C308   1.258       .  A
O301        C308   1.264       .  A
C302        O309   1.263       .  A
C302        O303   1.257       .  A
C302        C361   1.468       .  S
C304        O306   1.267       .  A
C304        O310   1.257       .  A
C304       C1158   1.466       .  S
C308       C1131   1.482       .  S
In311       O316   2.213   1_565  S
In311       O318   2.232   1_565  S
In311       O320   2.213   1_565  S
In311       O323   2.234   1_565  S
In311      O1609   2.258       .  S
In311      O1610   2.233       .  S
In311      O1618   2.265       .  S
In311      O1615   2.252       .  S
C312        O318   1.259       .  A
C312        O320   1.262       .  A
C312        C761   1.462       .  S
O313      In1607   2.258       .  S
O313        C321   1.262       .  A
O314      In1607   2.233       .  S
O314        C321   1.258       .  A
C315        O322   1.264       .  A
C315       O1612   1.257       .  A
C315        C481   1.475       .  S
O316       C1611   1.257   1_545  A
C317        O323   1.257       .  A
C317       O1615   1.264   1_545  A
C317       C1008   1.477       .  S
O319      In1607   2.252       .  S
O319       C1613   1.264       .  A
C321       C1248   1.480       .  S
O322      In1607   2.265       .  S
In324       O326   2.241       .  S
In324       O327   2.255       .  S
In324       O335   2.258       .  S
In324       O329   2.201       .  S
In324       O331   2.217       .  S
In324       O332   2.253       .  S
In324       O333   2.211       .  S
In324       O336   2.225       .  S
C325        O331   1.260       .  A
C325        O333   1.259       .  A
C325        C751   1.463       .  S
O326        C334   1.258       .  A
O327        C334   1.263       .  A
C328        O335   1.266       .  A
C328        O329   1.259       .  A
C328        C561   1.474       .  S
C330        O332   1.266       .  A
C330        O336   1.258       .  A
C330       C1051   1.481       .  S
C334       C1238   1.488       .  S
C337        C338   1.428       .  A
C337        C342   1.412       .  A
C337        H344   1.077       .  S
C338        C339   1.429       .  A
C339        C340   1.406       .  A
C339       Br346   1.918       .  S
C340        C341   1.418       .  A
C340        H345   1.076       .  S
C341        C342   1.427       .  A
C342       Br343   1.923       .  S
C347        C348   1.425       .  A
C347        C352   1.392       .  A
C347        H354   1.078       .  S
C348        C349   1.438       .  A
C349        C350   1.412       .  A
C349       Br356   1.932       .  S
C350        C351   1.402       .  A
C350        H355   1.083       .  S
C351        C352   1.402       .  A
C352       Br353   1.925       .  S
C357        C358   1.402       .  A
C357        C362   1.389       .  A
C357        H364   1.084       .  S
C358        C359   1.412       .  A
C359        C360   1.400       .  A
C359       Br366   1.920       .  S
C360        C361   1.403       .  A
C360        H365   1.083       .  S
C361        C362   1.409       .  A
C362       Br363   1.924       .  S
C367        C368   1.394       .  A
C367        C372   1.406       .  A
C367        H374   1.084       .  S
C368        C369   1.400       .  A
C369        C370   1.395       .  A
C369       Br376   1.925       .  S
C370        C371   1.422       .  A
C370        H375   1.065       .  S
C371        C372   1.451       .  A
C372       Br373   1.938       .  S
C377        C378   1.420       .  A
C377        C382   1.388       .  A
C377        H384   1.080       .  S
C378        C379   1.434       .  A
C379        C380   1.394       .  A
C379       Br386   1.921       .  S
C380        C381   1.393       .  A
C380        H385   1.084       .  S
C381        C382   1.403       .  A
C382       Br383   1.925       .  S
C387        C388   1.421       .  A
C387        C392   1.408       .  A
C387        H394   1.081       .  S
C388        C389   1.435       .  A
C389        C390   1.409       .  A
C389       Br396   1.917       .  S
C390        C391   1.410       .  A
C390        H395   1.080       .  S
C391        C392   1.433       .  A
C392       Br393   1.930       .  S
C397        C398   1.423       .  A
C397        C402   1.403       .  A
C397        H404   1.066       .  S
C398        C399   1.444       .  A
C399        C400   1.404       .  A
C399       Br406   1.936       .  S
C400        C401   1.400       .  A
C400        H405   1.083       .  S
C401        C402   1.405       .  A
C402       Br403   1.922       .  S
C407        C408   1.413       .  A
C407        C412   1.390       .  A
C407        H414   1.076       .  S
C408        C409   1.432       .  A
C409        C410   1.389       .  A
C409       Br416   1.929       .  S
C410        C411   1.396       .  A
C410        H415   1.084       .  S
C411        C412   1.406       .  A
C412       Br413   1.925       .  S
C417        C418   1.404   1_545  A
C417        C422   1.397       .  A
C417        H424   1.084       .  S
C418       C1715   1.412       .  A
C419        C420   1.384       .  A
C419       C1714   1.412       .  A
C419       Br426   1.926       .  S
C420       C1717   1.402       .  A
C420        H425   1.084       .  S
C421        C422   1.412   1_565  A
C421       C1716   1.402       .  A
C422       Br423   1.921       .  S
C427        C428   1.409       .  A
C427        C432   1.408       .  A
C427        H434   1.083       .  S
C428        C429   1.400       .  A
C429        C430   1.389       .  A
C429      Br1732   1.926       .  S
C430        C431   1.430       .  A
C430        H435   1.076       .  S
C431        C432   1.428       .  A
C432       Br433   1.929       .  S
Br436      C1725   1.926   1_545  S
C437        C438   1.396       .  A
C437       C1738   1.390   1_545  A
C437        H444   1.084       .  S
C438        C439   1.414   1_545  A
C439        C440   1.406       .  A
C439       Br446   1.920       .  S
C440       C1737   1.417       .  A
C440       H1741   1.080       .  S
C441        C442   1.436       .  A
C441       C1736   1.417       .  A
C442       C1733   1.390       .  A
C442       Br443   1.931       .  S
H445       C1736   1.080       .  S
C447        C448   1.422       .  A
C447        C452   1.406       .  A
C447        H454   1.078       .  S
C448        C449   1.437       .  A
C449        C450   1.400       .  A
C449       Br456   1.912       .  S
C450        C451   1.391       .  A
C450        H455   1.084       .  S
C451        C452   1.405       .  A
C452       Br453   1.919       .  S
C457        C458   1.413       .  A
C457        C462   1.394       .  A
C457        H464   1.070       .  S
C458        C459   1.439       .  A
C459        C460   1.406       .  A
C459       Br466   1.927       .  S
C460        C461   1.400       .  A
C460        H465   1.084       .  S
C461        C462   1.409       .  A
C462       Br463   1.924   1_655  S
C467        C472   1.397       .  A
C467       C1764   1.419       .  A
C467        H474   1.078       .  S
C468        C469   1.429       .  A
C468       C1763   1.419       .  A
C469        C470   1.409       .  A
C469       Br476   1.916       .  S
C470       C1767   1.403   1_545  A
C470        H475   1.083       .  S
C471        C472   1.407       .  A
C471       C1766   1.403       .  A
C472       Br473   1.922       .  S
C477        C478   1.404       .  A
C477        C482   1.392       .  A
C477       H1780   1.084       .  S
C478        C479   1.414       .  A
C479        C480   1.404       .  A
C479       Br486   1.919       .  S
C480        C481   1.404       .  A
C480        H485   1.083       .  S
C481        C482   1.411       .  A
C482      Br1779   1.924       .  S
Br483      C1778   1.924       .  S
H484       C1773   1.084       .  S
C487        C488   1.406       .  A
C487        C492   1.406       .  A
C487        H494   1.083       .  S
C488        C489   1.405       .  A
C489        C490   1.398       .  A
C489      Br1792   1.921   1_545  S
C490        C491   1.423       .  A
C490        H495   1.080       .  S
C491        C492   1.424       .  A
C492       Br493   1.912       .  S
Br496      C1785   1.921       .  S
C497        C498   1.423       .  A
C497        C502   1.389       .  A
C497        H504   1.076       .  S
C498        C499   1.433       .  A
C499        C500   1.392       .  A
C499       Br506   1.926       .  S
C500        C501   1.397       .  A
C500        H505   1.084       .  S
C501        C502   1.403       .  A
C502       Br503   1.925       .  S
C507        C508   1.395       .  A
C507        C512   1.395       .  A
C507        H514   1.084       .  S
C508        C509   1.414       .  A
C509        C510   1.409       .  A
C509       Br516   1.919       .  S
C510        C511   1.417       .  A
C510        H515   1.079       .  S
C511        C512   1.438       .  A
C512       Br513   1.929       .  S
C517        C518   1.419       .  A
C517        C522   1.412   1_565  A
C517       H1820   1.083       .  S
C518       C1579   1.583       .  S
C518        C519   1.442   1_565  A
C519        C520   1.399       .  A
C519       Br526   1.935       .  S
C520        C521   1.397       .  A
C520        H525   1.084       .  S
C521        C522   1.414       .  A
C522       Br523   1.917       .  S
H524       C1813   1.083       .  S
C527        C528   1.420       .  A
C527        C532   1.405       .  A
C527        H534   1.078       .  S
C528        C529   1.436       .  A
C529        C530   1.397       .  A
C529       Br536   1.926       .  S
C530        C531   1.395       .  A
C530        H535   1.084       .  S
C531        C532   1.407       .  A
C532       Br533   1.919       .  S
C537        C538   1.419       .  A
C537        C542   1.399       .  A
C537        H544   1.075       .  S
C538        C539   1.432       .  A
C539        C540   1.403       .  A
C539       Br546   1.923       .  S
C540        C541   1.401       .  A
C540        H545   1.083       .  S
C541        C542   1.409       .  A
C542       Br543   1.923       .  S
C547        C548   1.415       .  A
C547        C552   1.388       .  A
C547        H554   1.076       .  S
C548        C549   1.435       .  A
C549        C550   1.394       .  A
C549       Br556   1.927       .  S
C550        C551   1.390       .  A
C550        H555   1.084       .  S
C551        C552   1.399       .  A
C552       Br553   1.915       .  S
C557        C558   1.405       .  A
C557        C562   1.390       .  A
C557        H564   1.083       .  S
C558        C559   1.415       .  A
C559        C560   1.404       .  A
C559       Br566   1.919       .  S
C560        C561   1.404       .  A
C560        H565   1.083       .  S
C561        C562   1.410       .  A
C562       Br563   1.925       .  S
C567        C568   1.396       .  A
C567        C572   1.404       .  A
C567        H574   1.084       .  S
C568        C569   1.401       .  A
C569        C570   1.397       .  A
C569       Br576   1.921       .  S
C570        C571   1.421       .  A
C570        H575   1.079       .  S
C571        C572   1.434       .  A
C572       Br573   1.921       .  S
C577        C578   1.402       .  A
C577        C582   1.409       .  A
C577        H584   1.083       .  S
C578        C579   1.404       .  A
C579        C580   1.393       .  A
C579       Br586   1.922       .  S
C580        C581   1.417       .  A
C580        H585   1.077       .  S
C581       C1468   1.568       .  S
C581        C582   1.433       .  A
C582      Br1879   1.925       .  S
Br583      C1878   1.925       .  S
C587        C588   1.415       .  A
C587        C592   1.404       .  A
C587        H594   1.079       .  S
C588        C589   1.427       .  A
C589        C590   1.404       .  A
C589       Br596   1.922       .  S
C590        C591   1.413       .  A
C590        H595   1.079       .  S
C591        C592   1.430       .  A
C592       Br593   1.930       .  S
C597        C598   1.407       .  A
C597        C602   1.414       .  A
C597        H604   1.083       .  S
C598        C599   1.410       .  A
C599        C600   1.397       .  A
C599       Br606   1.926       .  S
C600        C601   1.423       .  A
C600        H605   1.074       .  S
C601        C602   1.430       .  A
C602       Br603   1.921       .  S
C607        C608   1.418       .  A
C607        C612   1.411       .  A
C607        H614   1.081       .  S
C608        C609   1.438       .  A
C609        C610   1.411       .  A
C609       Br616   1.930       .  S
C610        C611   1.415       .  A
C610        H615   1.078       .  S
C611        C612   1.427       .  A
C612       Br613   1.926       .  S
C617        C618   1.392       .  A
C617        C622   1.400       .  A
C617        H624   1.085       .  S
C618        C619   1.397       .  A
C619        C620   1.401       .  A
C619       Br626   1.917       .  S
C620        C621   1.426       .  A
C620        H625   1.082       .  S
C621        C622   1.444       .  A
C622       Br623   1.926       .  S
C627        C628   1.393       .  A
C627        C632   1.384       .  A
C627        H634   1.084       .  S
C628        C629   1.405       .  A
C629        C630   1.394       .  A
C629       Br636   1.922       .  S
C630        C631   1.416       .  A
C630        H635   1.078       .  S
C631        C632   1.429       .  A
C632       Br633   1.921       .  S
C637        C638   1.419       .  A
C637        C642   1.404       .  A
C637       H1940   1.083       .  S
C638        C639   1.435       .  A
C639        C640   1.395       .  A
C639       Br646   1.932       .  S
C640        C641   1.397       .  A
C640        H645   1.084       .  S
C641        C642   1.406       .  A
C642      Br1939   1.918       .  S
Br643      C1938   1.918   1_545  S
H644       C1933   1.083       .  S
C647        C648   1.390       .  A
C647        C652   1.386       .  A
C647        H654   1.085       .  S
C648        C649   1.391       .  A
C649        C650   1.389       .  A
C649       Br656   1.918       .  S
C650        C651   1.426       .  A
C650        H655   1.081       .  S
C651        C652   1.430       .  A
C652       Br653   1.916       .  S
C657        C658   1.397       .  A
C657        C662   1.390       .  A
C657        H664   1.084       .  S
C658        C659   1.400       .  A
C659        C660   1.388       .  A
C659       Br666   1.921       .  S
C660        C661   1.422       .  A
C660        H665   1.083       .  S
C661        C662   1.437       .  A
C662       Br663   1.933       .  S
C667        C668   1.396       .  A
C667        C672   1.404       .  A
C667        H674   1.084       .  S
C668        C669   1.400       .  A
C669        C670   1.393       .  A
C669       Br676   1.923       .  S
C670        C671   1.421       .  A
C670        H675   1.078       .  S
C671        C672   1.436       .  A
C672       Br673   1.921       .  S
C677        C678   1.388       .  A
C677        C682   1.395       .  A
C677        H684   1.084       .  S
C678        C679   1.394       .  A
C679        C680   1.383       .  A
C679      Br1982   1.907       .  S
C680        C681   1.409       .  A
C680        H685   1.073       .  S
C681        C682   1.440       .  A
C682       Br683   1.926       .  S
Br686      C1975   1.907       .  S
C687        C688   1.415       .  A
C687        C692   1.398       .  A
C687        H694   1.080       .  S
C688       C1985   1.433       .  A
C689        C690   1.398       .  A
C689       C1984   1.433       .  A
C689       Br696   1.930       .  S
C690       C1987   1.397       .  A
C690        H695   1.084       .  S
C691        C692   1.410       .  A
C691       C1986   1.397       .  A
C692       Br693   1.921       .  S
C697        C698   1.397       .  A
C697        C702   1.401       .  A
C697        H704   1.084       .  S
C698        C699   1.407       .  A
C699        C700   1.401       .  A
C699       Br706   1.916       .  S
C700        C701   1.418       .  A
C700        H705   1.080       .  S
C701        C702   1.438       .  A
C702       Br703   1.929       .  S
C707        C708   1.411       .  A
C707        C712   1.403   1_556  A
C707        H714   1.078       .  S
C708        C709   1.443   1_556  A
C709        C710   1.401       .  A
C709       Br716   1.934       .  S
C710        C711   1.397       .  A
C710        H715   1.084       .  S
C711        C712   1.408       .  A
C712       Br713   1.920       .  S
C717        C718   1.402       .  A
C717       C2018   1.392       .  A
C717       H2020   1.083       .  S
C718        C719   1.416       .  A
C719        C720   1.404       .  A
C719       Br726   1.920       .  S
C720        C721   1.404       .  A
C720        H725   1.084       .  S
C721       C2018   1.413       .  A
C722       C2013   1.392       .  A
C722       C2017   1.413       .  A
C722       Br723   1.924       .  S
H724       C2013   1.083       .  S
C727        C728   1.394       .  A
C727        C732   1.399       .  A
C727       H2030   1.084       .  S
C728        C729   1.406       .  A
C729        C730   1.401       .  A
C729       Br736   1.919       .  S
C730        C731   1.416       .  A
C730        H735   1.078       .  S
C731        C732   1.441       .  A
C732       Br733   1.934       .  S
H734       C2023   1.084       .  S
C737        C738   1.398       .  A
C737        C742   1.402       .  A
C737        H744   1.084       .  S
C738        C739   1.405       .  A
C739        C740   1.389       .  A
C739       Br746   1.923       .  S
C740        C741   1.420       .  A
C740        H745   1.083       .  S
C741        C742   1.439       .  A
C742       Br743   1.929       .  S
C747        C748   1.420       .  A
C747        C752   1.385       .  A
C747        H754   1.081       .  S
C748        C749   1.434       .  A
C749        C750   1.397       .  A
C749       Br756   1.925       .  S
C750        C751   1.397       .  A
C750        H755   1.084       .  S
C751        C752   1.402       .  A
C752       Br753   1.924       .  S
C757        C758   1.422       .  A
C757        C762   1.393       .  A
C757        H764   1.073       .  S
C758        C759   1.436       .  A
C759        C760   1.391       .  A
C759       Br766   1.909       .  S
C760        C761   1.388       .  A
C760        H765   1.085       .  S
C761        C762   1.400       .  A
C762      Br2059   1.921   1_545  S
Br763      C2058   1.921       .  S
C767        C768   1.391       .  A
C767        C772   1.401       .  A
C767        H774   1.085       .  S
C768        C769   1.403       .  A
C769        C770   1.400       .  A
C769       Br776   1.920       .  S
C770        C771   1.427       .  A
C770        H775   1.082       .  S
C771        C772   1.437       .  A
C772       Br773   1.901       .  S
C777        C778   1.414       .  A
C777        C782   1.403   1_556  A
C777        H784   1.083       .  S
C778        C779   1.438       .  A
C779        C780   1.403   1_556  A
C779       Br786   1.930   1_556  S
C780        C781   1.398       .  A
C780        H785   1.084       .  S
C781        C782   1.411       .  A
C782       Br783   1.920   1_654  S
C787        C788   1.422       .  A
C787        C792   1.399       .  A
C787        H794   1.084       .  S
C788        C789   1.438       .  A
C789        C790   1.392       .  A
C789       Br796   1.936       .  S
C790        C791   1.394       .  A
C790        H795   1.085       .  S
C791        C792   1.399       .  A
C792       Br793   1.918       .  S
C797        C798   1.406       .  A
C797        C802   1.391       .  A
C797        H804   1.083       .  S
C798        C799   1.411       .  A
C799        C800   1.403       .  A
C799       Br806   1.919       .  S
C800        C801   1.409       .  A
C800        H805   1.083       .  S
C801        C802   1.412       .  A
C802       Br803   1.925       .  S
C807        C808   1.426       .  A
C807        C812   1.397       .  A
C807        H814   1.083       .  S
C808        C809   1.436       .  A
C809        C810   1.402       .  A
C809       Br816   1.922       .  S
C810        C811   1.398       .  A
C810        H815   1.084       .  S
C811        C812   1.399       .  A
C812       Br813   1.919   1_556  S
C817        C818   1.406       .  A
C817        C822   1.410       .  A
C817        H824   1.083       .  S
C818        C819   1.410       .  A
C819        C820   1.397       .  A
C819       Br826   1.923       .  S
C820        C821   1.417       .  A
C820        H825   1.075       .  S
C821        C822   1.431       .  A
C822       Br823   1.922       .  S
C827        C828   1.400       .  A
C827       C2128   1.403       .  A
C827        H834   1.084       .  S
C828        C829   1.405       .  A
C829        C830   1.401       .  A
C829       Br836   1.921       .  S
C830       C2127   1.430       .  A
C830        H835   1.081       .  S
C831        C832   1.432       .  A
C831       C2126   1.430       .  A
C832       C2123   1.403       .  A
C832       Br833   1.916       .  S
C837        C838   1.423       .  A
C837        C842   1.403   1_554  A
C837        H844   1.079       .  S
C838        C839   1.429       .  A
C839        C840   1.399       .  A
C839       Br846   1.916       .  S
C840        C841   1.401   1_554  A
C840        H845   1.083       .  S
C841        C842   1.409       .  A
C842       Br843   1.921       .  S
C847        C848   1.420       .  A
C847       C2148   1.393       .  A
C847        H854   1.075       .  S
C848       C2145   1.434       .  A
C849        C850   1.402   1_565  A
C849       C2144   1.434       .  A
C849       Br856   1.921       .  S
C850        C851   1.398       .  A
C850        H855   1.084       .  S
C851        C852   1.404   1_545  A
C852       C2143   1.393       .  A
C852       Br853   1.925   1_565  S
C857        C858   1.403       .  A
C857        C862   1.402       .  A
C857        H864   1.083       .  S
C858        C859   1.407       .  A
C859        C860   1.391       .  A
C859       Br866   1.922       .  S
C860        C861   1.401       .  A
C860        H865   1.084       .  S
C861        C862   1.409       .  A
C862       Br863   1.918       .  S
C867        C868   1.399       .  A
C867        C872   1.407       .  A
C867        H874   1.084       .  S
C868        C869   1.394       .  A
C869        C870   1.395       .  A
C869      Br2172   1.919       .  S
C870        C871   1.429       .  A
C870        H875   1.082       .  S
C871        C872   1.437       .  A
C872       Br873   1.924       .  S
Br876      C2165   1.919   1_545  S
C877        C878   1.424       .  A
C877        C882   1.390       .  A
C877        H884   1.079       .  S
C878        C879   1.431       .  A
C879        C880   1.385       .  A
C879       Br886   1.912       .  S
C880        C881   1.389       .  A
C880        H885   1.086       .  S
C881        C882   1.393       .  A
C882       Br883   1.918       .  S
C887        C888   1.422       .  A
C887        C892   1.387       .  A
C887        H894   1.080       .  S
C888        C889   1.432       .  A
C889        C890   1.395       .  A
C889       Br896   1.917       .  S
C890        C891   1.394       .  A
C890        H895   1.084       .  S
C891        C892   1.402       .  A
C892       Br893   1.925       .  S
C897        C898   1.395       .  A
C897        C902   1.389       .  A
C897        H904   1.084       .  S
C898        C899   1.406       .  A
C899        C900   1.394       .  A
C899       Br906   1.922       .  S
C900        C901   1.413       .  A
C900        H905   1.077       .  S
C901        C902   1.434       .  A
C902       Br903   1.929       .  S
C907        C908   1.401       .  A
C907        C912   1.400       .  A
C907        H914   1.083       .  S
C908        C909   1.408       .  A
C909        C910   1.404       .  A
C909       Br916   1.919       .  S
C910        C911   1.416       .  A
C910        H915   1.074       .  S
C911        C912   1.431       .  A
C912       Br913   1.928       .  S
C917        C918   1.395       .  A
C917        C922   1.399       .  A
C917        H924   1.084       .  S
C918        C919   1.404       .  A
C919        C920   1.398       .  A
C919       Br926   1.924   1_655  S
C920        C921   1.423       .  A
C920        H925   1.062       .  S
C921        C922   1.445       .  A
C922       Br923   1.930       .  S
C927        C928   1.398       .  A
C927        C932   1.408   1_556  A
C927        H934   1.084       .  S
C928        C929   1.401       .  A
C929        C930   1.391   1_556  A
C929       Br936   1.921       .  S
C930        C931   1.421       .  A
C930        H935   1.078       .  S
C931        C932   1.434       .  A
C932       Br933   1.922       .  S
C937        C938   1.390       .  A
C937        C942   1.395       .  A
C937        H944   1.084       .  S
C938        C939   1.406       .  A
C939        C940   1.404       .  A
C939       Br946   1.919       .  S
C940        C941   1.418       .  A
C940        H945   1.078       .  S
C941        C942   1.439       .  A
C942       Br943   1.925       .  S
C947        C948   1.395       .  A
C947        C952   1.387       .  A
C947        H954   1.084       .  S
C948        C949   1.404       .  A
C949        C950   1.392       .  A
C949       Br956   1.922       .  S
C950        C951   1.416       .  A
C950        H955   1.077       .  S
C951        C952   1.431       .  A
C952       Br953   1.928       .  S
C957        C958   1.404       .  A
C957        C962   1.400       .  A
C957        H964   1.083       .  S
C958        C959   1.411       .  A
C959        C960   1.389       .  A
C959       Br966   1.924       .  S
C960        C961   1.399       .  A
C960        H965   1.084       .  S
C961        C962   1.408       .  A
C962       Br963   1.919       .  S
C967        C968   1.420       .  A
C967        C972   1.397       .  A
C967        H974   1.074       .  S
C968        C969   1.435       .  A
C969        C970   1.406       .  A
C969       Br976   1.924       .  S
C970        C971   1.397       .  A
C970        H975   1.084       .  S
C971        C972   1.404       .  A
C972       Br973   1.923   1_554  S
C977        C978   1.414       .  A
C977        C982   1.400       .  A
C977        H984   1.073       .  S
C978        C979   1.433       .  A
C979        C980   1.408       .  A
C979       Br986   1.928       .  S
C980        C981   1.418       .  A
C980        H985   1.082       .  S
C981        C982   1.432       .  A
C982       Br983   1.928       .  S
C987        C988   1.402       .  A
C987        C992   1.402       .  A
C987        H994   1.083       .  S
C988        C989   1.410       .  A
C989        C990   1.395       .  A
C989       Br996   1.924       .  S
C990        C991   1.419       .  A
C990        H995   1.077       .  S
C991       C1304   1.559       .  S
C991        C992   1.431       .  A
C992       Br993   1.924       .  S
C997        C998   1.397       .  A
C997       C1002   1.394       .  A
C997       H1004   1.084       .  S
C998        C999   1.404       .  A
C999       C1000   1.406       .  A
C999      Br1006   1.917       .  S
C1000      C1001   1.425       .  A
C1000      H1005   1.083       .  S
C1001      C1002   1.441       .  A
C1002     Br2299   1.935   1_545  S
Br1003     C2298   1.935       .  S
C1007      C1008   1.389       .  A
C1007      C1012   1.398       .  A
C1007      H1014   1.085   1_545  S
C1008      C1009   1.400       .  A
C1009      C1010   1.400       .  A
C1009     Br1016   1.921       .  S
C1010      C1011   1.421       .  A
C1010      H1015   1.067       .  S
C1011      C1012   1.446       .  A
C1012     Br1013   1.921       .  S
C1017      C1018   1.417       .  A
C1017      C1022   1.406       .  A
C1017      H1024   1.083       .  S
C1018      C1019   1.434       .  A
C1019      C1020   1.404       .  A
C1019     Br1026   1.933       .  S
C1020      C1021   1.416       .  A
C1020      H1025   1.077       .  S
C1021      C1022   1.425       .  A
C1022     Br1023   1.919       .  S
C1027      C1028   1.420       .  A
C1027      C1032   1.399       .  A
C1027      H1034   1.078       .  S
C1028      C1029   1.428       .  A
C1029      C1030   1.408       .  A
C1029     Br1036   1.915       .  S
C1030      C1031   1.404       .  A
C1030      H1035   1.083       .  S
C1031      C1032   1.409       .  A
C1032     Br1033   1.922       .  S
C1037      C1038   1.426       .  A
C1037      C1042   1.402       .  A
C1037      H1044   1.082       .  S
C1038      C1039   1.439       .  A
C1039      C1040   1.399       .  A
C1039     Br1046   1.927       .  S
C1040      C1041   1.397       .  A
C1040      H1045   1.084       .  S
C1041      C1042   1.403       .  A
C1042     Br1043   1.919       .  S
C1047      C1048   1.421       .  A
C1047      C1052   1.399       .  A
C1047      H1054   1.079       .  S
C1048      C1049   1.434       .  A
C1049      C1050   1.398       .  A
C1049     Br1056   1.916       .  S
C1050      C1051   1.394       .  A
C1050      H1055   1.084       .  S
C1051      C1052   1.408       .  A
C1052     Br1053   1.921       .  S
C1057      C1058   1.401       .  A
C1057      C1062   1.411       .  A
C1057      H1064   1.084       .  S
C1058      C1059   1.402       .  A
C1059      C1060   1.399       .  A
C1059     Br1066   1.922       .  S
C1060      C1061   1.424   1_545  A
C1060      H1065   1.073       .  S
C1061      C1302   1.579       .  S
C1061      C1062   1.439   1_565  A
C1062     Br1063   1.923   1_545  S
C1067      C1068   1.412       .  A
C1067      C1072   1.411       .  A
C1067      H1074   1.081       .  S
C1068      C1069   1.440       .  A
C1069      C1070   1.401       .  A
C1069     Br1076   1.937       .  S
C1070      C1071   1.410       .  A
C1070      H1075   1.078       .  S
C1071      C1072   1.431       .  A
C1072     Br1073   1.921       .  S
C1077      C1078   1.424       .  A
C1077      C1082   1.406       .  A
C1077      H1084   1.067       .  S
C1078      C1079   1.453       .  A
C1079      C1080   1.403       .  A
C1079     Br1086   1.936       .  S
C1080      C1081   1.392       .  A
C1080      H1085   1.085       .  S
C1081      C1082   1.403       .  A
C1082     Br1083   1.921   1_455  S
C1087      C1088   1.422       .  A
C1087      C1092   1.392       .  A
C1087      H1094   1.084       .  S
C1088      C1089   1.439       .  A
C1089      C1090   1.402       .  A
C1089     Br2392   1.920       .  S
C1090      C1091   1.398       .  A
C1090      H2391   1.084       .  S
C1091      C1092   1.408       .  A
C1092     Br1093   1.923       .  S
H1095      C2386   1.084       .  S
Br1096     C2385   1.920       .  S
C1097      C1098   1.395       .  A
C1097      C1102   1.406       .  A
C1097      H1104   1.084       .  S
C1098      C1099   1.395       .  A
C1099      C1100   1.392       .  A
C1099     Br1106   1.918       .  S
C1100      C1101   1.422       .  A
C1100      H1105   1.079       .  S
C1101      C1102   1.436       .  A
C1102     Br1103   1.918       .  S
C1107      C1108   1.412       .  A
C1107      C1112   1.400       .  A
C1107      H1114   1.073       .  S
C1108      C1109   1.430       .  A
C1109      C1110   1.410       .  A
C1109     Br1116   1.922       .  S
C1110      C1111   1.417       .  A
C1110      H1115   1.083       .  S
C1111      C1112   1.437       .  A
C1112     Br1113   1.933       .  S
C1117      C1118   1.419       .  A
C1117      C1122   1.403       .  A
C1117      H1124   1.083       .  S
C1118      C1119   1.440       .  A
C1119      C1120   1.400       .  A
C1119     Br1126   1.931       .  S
C1120      C1121   1.396       .  A
C1120      H1125   1.084       .  S
C1121      C1122   1.410       .  A
C1122     Br1123   1.919       .  S
C1127      C1128   1.422       .  A
C1127      C1132   1.398       .  A
C1127      H1134   1.078       .  S
C1128      C1129   1.427       .  A
C1129      C1130   1.395       .  A
C1129     Br1136   1.924       .  S
C1130      C1131   1.402       .  A
C1130      H1135   1.083       .  S
C1131      C1132   1.407       .  A
C1132     Br1133   1.922       .  S
C1137      C1138   1.413       .  A
C1137      C1142   1.408       .  A
C1137      H1144   1.081       .  S
C1138      C1139   1.446       .  A
C1139      C1140   1.396       .  A
C1139     Br1146   1.933       .  S
C1140      C1141   1.390       .  A
C1140      H1145   1.084       .  S
C1141      C1142   1.415       .  A
C1142     Br1143   1.921       .  S
C1147      C1148   1.433       .  A
C1147      C1152   1.398       .  A
C1147      H1154   1.081       .  S
C1148      C1149   1.427       .  A
C1149      C1150   1.410       .  A
C1149     Br1156   1.908       .  S
C1150      C1151   1.406       .  A
C1150      H1155   1.084       .  S
C1151      C1152   1.397       .  A
C1152     Br1153   1.920       .  S
C1157      C1158   1.400       .  A
C1157      C1162   1.404       .  A
C1157      H1164   1.084       .  S
C1158      C1159   1.388       .  A
C1159      C1160   1.388       .  A
C1159     Br1166   1.920       .  S
C1160      C1161   1.431       .  A
C1160      H1165   1.080       .  S
C1161      C1162   1.436       .  A
C1162     Br1163   1.923       .  S
C1167      C1168   1.383       .  A
C1167      C1172   1.393       .  A
C1167      H1174   1.084       .  S
C1168      C1169   1.404       .  A
C1169      C1170   1.405       .  A
C1169     Br1176   1.915       .  S
C1170      C1171   1.415       .  A
C1170      H1175   1.080       .  S
C1171      C1172   1.441       .  A
C1172     Br1173   1.915       .  S
C1177      C1178   1.411       .  A
C1177      C1182   1.404       .  A
C1177      H1184   1.079       .  S
C1178      C1179   1.444       .  A
C1179      C1180   1.396       .  A
C1179     Br1186   1.925       .  S
C1180      C1181   1.386       .  A
C1180      H1185   1.084       .  S
C1181      C1182   1.407       .  A
C1182     Br1183   1.915   1_545  S
C1187      C1188   1.410       .  A
C1187      C1192   1.402       .  A
C1187      H1194   1.079       .  S
C1188      C1189   1.441       .  A
C1189      C1190   1.396       .  A
C1189     Br1196   1.924       .  S
C1190      C1191   1.388       .  A
C1190      H1195   1.084       .  S
C1191      C1192   1.409       .  A
C1192     Br1193   1.912       .  S
C1197      C1198   1.429       .  A
C1197      C1202   1.394       .  A
C1197      H1204   1.078       .  S
C1198      C1199   1.429       .  A
C1199      C1200   1.410       .  A
C1199     Br1206   1.919       .  S
C1200      C1201   1.407       .  A
C1200      H1205   1.084       .  S
C1201      C1202   1.398       .  A
C1202     Br1203   1.922       .  S
C1207      C1208   1.404       .  A
C1207      C1212   1.408       .  A
C1207      H1214   1.084       .  S
C1208      C1209   1.394       .  A
C1209      C1210   1.391       .  A
C1209     Br1216   1.922       .  S
C1210      C1211   1.429       .  A
C1210      H1215   1.078       .  S
C1211      C1212   1.429       .  A
C1212     Br1213   1.918       .  S
C1217      C1218   1.420       .  A
C1217      C1222   1.389       .  A
C1217      H1224   1.083       .  S
C1218      C1219   1.437       .  A
C1219      C1220   1.403       .  A
C1219     Br1226   1.925       .  S
C1220      C1221   1.398       .  A
C1220      H1225   1.084       .  S
C1221      C1222   1.401       .  A
C1222     Br1223   1.918       .  S
C1227      C1228   1.431       .  A
C1227      C1232   1.396       .  A
C1227      H1234   1.080       .  S
C1228      C1229   1.432       .  A
C1229      C1230   1.401       .  A
C1229     Br1236   1.912       .  S
C1230      C1231   1.398       .  A
C1230      H1235   1.084       .  S
C1231      C1232   1.394       .  A
C1232     Br1233   1.918       .  S
C1237      C1238   1.398       .  A
C1237      C1242   1.401       .  A
C1237      H1244   1.083       .  S
C1238      C1239   1.406       .  A
C1239      C1240   1.401       .  A
C1239     Br1246   1.923       .  S
C1240      C1241   1.424       .  A
C1240      H1245   1.075       .  S
C1241      C1242   1.440       .  A
C1242     Br1243   1.928       .  S
C1247      C1248   1.397       .  A
C1247      C1252   1.403       .  A
C1247      H1254   1.083       .  S
C1248      C1249   1.408       .  A
C1249      C1250   1.396       .  A
C1249     Br1256   1.927       .  S
C1250      C1251   1.420       .  A
C1250      H1255   1.079       .  S
C1251      C1252   1.434       .  A
C1252     Br1253   1.923       .  S
C1257      C1258   1.430       .  A
C1257      C1262   1.400       .  A
C1257      H1264   1.083       .  S
C1258      C1259   1.434       .  A
C1259      C1260   1.401       .  A
C1259     Br1266   1.921       .  S
C1260      C1261   1.398       .  A
C1260      H1265   1.085       .  S
C1261      C1262   1.394       .  A
C1262     Br1263   1.916       .  S
C1267      C1268   1.423       .  A
C1267      C1272   1.401       .  A
C1267      H1274   1.077       .  S
C1268      C1269   1.435       .  A
C1269      C1270   1.397       .  A
C1269     Br1276   1.926       .  S
C1270      C1271   1.397       .  A
C1270      H1275   1.084       .  S
C1271      C1272   1.406       .  A
C1272     Br1273   1.921       .  S
C1277      C1278   1.412       .  A
C1277      C1282   1.392       .  A
C1277      H1284   1.077       .  S
C1278      C1279   1.438       .  A
C1279      C1280   1.403       .  A
C1279     Br1286   1.920       .  S
C1280      C1281   1.393       .  A
C1280      H1285   1.084       .  S
C1281      C1282   1.407       .  A
C1282     Br1283   1.913       .  S
C1287      C1288   1.400       .  A
C1287      C1292   1.400       .  A
C1287      H1294   1.083       .  S
C1288      C1289   1.406       .  A
C1289      C1290   1.399       .  A
C1289     Br1296   1.923       .  S
C1290      C1291   1.422       .  A
C1290      H1295   1.076       .  S
C1291      C1292   1.434       .  A
C1292     Br1293   1.928       .  S
C1297      C2554   1.577       .  S
C1297      C2564   1.581       .  S
C1297      C2574   1.577       .  S
C1297      C2587   1.571       .  S
C1298      C2514   1.570       .  S
C1298      C2524   1.573       .  S
C1298      C2537   1.588       .  S
C1298      C2547   1.583       .  S
C1299      C2474   1.572       .  S
C1299      C2484   1.571       .  S
C1299      C2494   1.587       .  S
C1299      C2507   1.584       .  S
C1300      C2434   1.576       .  S
C1300      C2444   1.596       .  S
C1300      C2457   1.581       .  S
C1300      C2467   1.564       .  S
C1301      C2397   1.577       .  S
C1301      C2404   1.585       .  S
C1301      C2414   1.585       .  S
C1301      C2424   1.561       .  S
C1302      C2364   1.604       .  S
C1302      C2374   1.615       .  S
C1302      C2384   1.560       .  S
C1303      C2314   1.587       .  S
C1303      C2324   1.577       .  S
C1303      C2334   1.574       .  S
C1303      C2344   1.585       .  S
C1304      C2274   1.601       .  S
C1304      C2297   1.579       .  S
C1304      C2307   1.592       .  S
In1305     O1307   2.225       .  S
In1305     O1308   2.275       .  S
In1305     O1316   2.242   1_554  S
In1305     O1310   2.197   1_554  S
In1305     O1312   2.213       .  S
In1305     O1313   2.252       .  S
In1305     O1314   2.201       .  S
In1305     O1317   2.235       .  S
C1306      O1312   1.261       .  A
C1306      O1314   1.263       .  A
C1306      C2244   1.465       .  S
O1307      C1315   1.258       .  A
O1308      C1315   1.267       .  A
C1309      O1316   1.264       .  A
C1309      O1310   1.260       .  A
C1309      C2257   1.464       .  S
C1311      O1313   1.270       .  A
C1311      O1317   1.257       .  A
C1311      C2437   1.488       .  S
C1315      C2267   1.481       .  S
C1318      C2227   1.580       .  S
C1318      C2237   1.575       .  S
C1318      C2264   1.582       .  S
C1318      C2367   1.587       .  S
In1319     O1321   2.273       .  S
In1319     O1322   2.241       .  S
In1319     O1330   2.266       .  S
In1319     O1324   2.234       .  S
In1319     O1326   2.263       .  S
In1319     O1327   2.247       .  S
In1319     O1328   2.229   1_455  S
In1319     O1331   2.237   1_455  S
C1320      O1326   1.262   1_655  A
C1320      O1328   1.256       .  A
C1320      C2284   1.485       .  S
O1321      C1329   1.262       .  A
O1322      C1329   1.258       .  A
C1323      O1330   1.263       .  A
C1323      O1324   1.259       .  A
C1323      C2224   1.476       .  S
C1325      O1327   1.262   1_655  A
C1325      O1331   1.263       .  A
C1325      C2214   1.482       .  S
C1329      C2204   1.488       .  S
C1332      C2174   1.556       .  S
C1332      C2184   1.563       .  S
C1332      C2197   1.550       .  S
C1332      C2247   1.561       .  S
In1333     O1336   2.268       .  S
In1333     O1344   2.254   1_554  S
In1333     O1341   2.281       .  S
In1333     O1345   2.242       .  S
C1334      O1340   1.266       .  A
C1334      O1342   1.264       .  A
C1334      C2177   1.450       .  S
O1335      C1343   1.258       .  A
C1337      O1344   1.263       .  A
C1337      C2154   1.466       .  S
C1339      O1341   1.269       .  A
C1339      O1345   1.257       .  A
C1339      C2447   1.490       .  S
C1343      C2164   1.475       .  S
C1346      C2134   1.588       .  S
C1346      C2144   1.573       .  S
C1346      C2167   1.584       .  S
C1346      C2407   1.581       .  S
In1347     O1349   2.285       .  S
In1347     O1350   2.259       .  S
In1347     O1358   2.269       .  S
In1347     O1352   2.233       .  S
In1347     O1354   2.259       .  S
In1347     O1355   2.243       .  S
In1347     O1356   2.246       .  S
In1347     O1359   2.273       .  S
C1348      O1354   1.264       .  A
C1348      O1356   1.262       .  A
C1348      C2327   1.493       .  S
O1349      C1357   1.259       .  A
O1350      C1357   1.256       .  A
C1351      O1358   1.264       .  A
C1351      O1352   1.261       .  A
C1351      C2137   1.491       .  S
C1353      O1355   1.257       .  A
C1353      O1359   1.261       .  A
C1353      C2124   1.490       .  S
C1357      C2114   1.497       .  S
In1360     O1362   2.213       .  S
In1360     O1363   2.263       .  S
In1360     O1371   2.243   1_556  S
In1360     O1365   2.215   1_556  S
In1360     O1367   2.240       .  S
In1360     O1368   2.261       .  S
In1360     O1369   2.204       .  S
In1360     O1372   2.221       .  S
C1361      O1367   1.267       .  A
C1361      O1369   1.264       .  A
C1361      C2087   1.467       .  S
O1362      C1370   1.259       .  A
O1363      C1370   1.269       .  A
C1364      O1371   1.263       .  A
C1364      O1365   1.260       .  A
C1364      C2097   1.481       .  S
C1366      O1368   1.266       .  A
C1366      O1372   1.258       .  A
C1366      C2107   1.473       .  S
C1370      C2527   1.473       .  S
C1373      C2074   1.597       .  S
C1373      C2104   1.566       .  S
C1373      C2217   1.592       .  S
C1373      C2277   1.576       .  S
In1374     O1376   2.263       .  S
In1374     O1377   2.247       .  S
In1374     O1385   2.268   1_655  S
In1374     O1379   2.268   1_655  S
In1374     O1381   2.248       .  S
In1374     O1382   2.238   1_655  S
In1374     O1383   2.274       .  S
In1374     O1386   2.262   1_655  S
C1375      O1381   1.256       .  A
C1375      O1383   1.263       .  A
C1375      C2077   1.490       .  S
O1376      C1384   1.264       .  A
O1377      C1384   1.255       .  A
C1378      O1385   1.262       .  A
C1378      O1379   1.259       .  A
C1378      C2354   1.490       .  S
C1380      O1382   1.257       .  A
C1380      O1386   1.265       .  A
C1380      C2234   1.475       .  S
C1384      C2064   1.482       .  S
C1387      C2037   1.582       .  S
C1387      C2044   1.552       .  S
C1387      C2054   1.569       .  S
C1387      C2084   1.557       .  S
In1388     O1390   2.221   1_545  S
In1388     O1391   2.241   1_545  S
In1388     O1399   2.245   1_546  S
In1388     O1396   2.258       .  S
C1389      O1395   1.267       .  A
C1389      O1397   1.259       .  A
C1389      C2034   1.479       .  S
O1390      C1398   1.259       .  A
O1391      C1398   1.266       .  A
C1392      O1399   1.262   1_545  A
C1392      C2014   1.483       .  S
C1394      O1400   1.259       .  A
C1394      C2024   1.476       .  S
C1398      C2517   1.470       .  S
C1401      C2004   1.590       .  S
C1401      C2027   1.570       .  S
C1401      C2127   1.600       .  S
C1401      C2317   1.587       .  S
In1402     O1404   2.248       .  S
In1402     O1405   2.258       .  S
In1402     O1413   2.255       .  S
In1402     O1407   2.250       .  S
In1402     O1409   2.256       .  S
In1402     O1410   2.258       .  S
In1402     O1411   2.254       .  S
In1402     O1414   2.231       .  S
C1403      O1409   1.258       .  A
C1403      O1411   1.262       .  A
C1403      C2007   1.489       .  S
O1404      C1412   1.263       .  A
O1405      C1412   1.261       .  A
C1406      O1413   1.259       .  A
C1406      O1407   1.258       .  A
C1406      C2394   1.469       .  S
C1408      O1410   1.261       .  A
C1408      O1414   1.257       .  A
C1408      C2147   1.476       .  S
C1412      C1994   1.485       .  S
In1415     O1417   2.226       .  S
In1415     O1420   2.201       .  S
In1415     O1422   2.231       .  S
In1415     O1424   2.213       .  S
C1416      O1422   1.257       .  A
C1416      O1424   1.258       .  A
C1416      C1974   1.447       .  S
O1417      C1425   1.257       .  A
C1419      O1426   1.267   1_545  A
C1419      C2017   1.478       .  S
C1421      O1423   1.261       .  A
C1421      O1427   1.258       .  A
C1421      C2584   1.484       .  S
C1425      C1987   1.477       .  S
In1428     O1430   2.209       .  S
In1428     O1431   2.272       .  S
In1428     O1439   2.274       .  S
In1428     O1433   2.189       .  S
In1428     O1435   2.188       .  S
In1428     O1436   2.273       .  S
In1428     O1437   2.225       .  S
In1428     O1440   2.226       .  S
C1429      O1435   1.260       .  A
C1429      O1437   1.262       .  A
C1429      C1954   1.465       .  S
O1430      C1438   1.255       .  A
O1431      C1438   1.266       .  A
C1432      O1439   1.266       .  A
C1432      O1433   1.255       .  A
C1432      C2094   1.482       .  S
C1434      O1436   1.267       .  A
C1434      O1440   1.256       .  A
C1434      C2577   1.477       .  S
C1438      C1964   1.471       .  S
In1441     O1446   2.199   1_545  S
In1441     O1448   2.215   1_545  S
In1441     O1450   2.189   1_545  S
In1441     O1453   2.220   1_545  S
C1442      O1448   1.260       .  A
C1442      O1450   1.261       .  A
C1442      C1944   1.446       .  S
O1443      C1451   1.257       .  A
O1444      C1451   1.266       .  A
C1445      O1452   1.265       .  A
C1445      C2157   1.468       .  S
C1447      O1453   1.259       .  A
C1447      C1937   1.478       .  S
C1451      C2497   1.489       .  S
In1454     O1456   2.236       .  S
In1454     O1457   2.246       .  S
In1454     O1465   2.257       .  S
In1454     O1459   2.189       .  S
In1454     O1461   2.212       .  S
In1454     O1462   2.268       .  S
In1454     O1463   2.202       .  S
In1454     O1466   2.221       .  S
C1455      O1461   1.258       .  A
C1455      O1463   1.263       .  A
C1455      C1924   1.463       .  S
O1456      C1464   1.258       .  A
O1457      C1464   1.266       .  A
C1458      O1465   1.265       .  A
C1458      O1459   1.256       .  A
C1458      C2254   1.468       .  S
C1460      O1462   1.265       .  A
C1460      O1466   1.258       .  A
C1460      C1914   1.473       .  S
C1464      C2504   1.479       .  S
C1467      C1897   1.595       .  S
C1467      C1907   1.588       .  S
C1467      C1967   1.581       .  S
C1467      C2067   1.590       .  S
C1468      C1887   1.574       .  S
C1468      C1984   1.563       .  S
C1468      C1997   1.570       .  S
In1469     O1471   2.241       .  S
In1469     O1472   2.263       .  S
In1469     O1480   2.262       .  S
In1469     O1474   2.202       .  S
In1469     O1476   2.240       .  S
In1469     O1477   2.246       .  S
In1469     O1478   2.217       .  S
In1469     O1481   2.239       .  S
C1470      O1476   1.259       .  A
C1470      O1478   1.257       .  A
C1470      C1847   1.454       .  S
O1471      C1479   1.257       .  A
O1472      C1479   1.263       .  A
C1473      O1480   1.264       .  A
C1473      O1474   1.259       .  A
C1473      C1854   1.482       .  S
C1475      O1477   1.265       .  A
C1475      O1481   1.259       .  A
C1475      C2567   1.482       .  S
C1479      C1864   1.475       .  S
C1482      C1824   1.579       .  S
C1482      C1834   1.582       .  S
C1482      C1867   1.580       .  S
C1482      C1884   1.582       .  S
In1483     O1485   2.264       .  S
In1483     O1486   2.225       .  S
In1483     O1494   2.246       .  S
In1483     O1488   2.266       .  S
In1483     O1490   2.286       .  S
In1483     O1491   2.264       .  S
In1483     O1492   2.251       .  S
In1483     O1495   2.264       .  S
C1484      O1490   1.261       .  A
C1484      O1492   1.263       .  A
C1484      C1817   1.501       .  S
O1485      C1493   1.264       .  A
O1486      C1493   1.262       .  A
C1487      O1494   1.260       .  A
C1487      O1488   1.259       .  A
C1487      C1827   1.485       .  S
C1489      O1491   1.257       .  A
C1489      O1495   1.264       .  A
C1489      C1804   1.489       .  S
C1493      C2337   1.484       .  S
C1496      C1794   1.574       .  S
C1496      C1844   1.562       .  S
C1496      C1957   1.559       .  S
C1496      C1977   1.546       .  S
In1497     O1500   2.261   1_545  S
In1497     O1508   2.256   1_545  S
In1497     O1505   2.272   1_545  S
In1497     O1509   2.216   1_545  S
C1498      O1504   1.263       .  A
C1498      O1506   1.263       .  A
C1498      C1797   1.470       .  S
O1499      C1507   1.260       .  A
C1501      O1508   1.265       .  A
C1501      C1774   1.481       .  S
C1503      O1505   1.270       .  A
C1503      O1509   1.258       .  A
C1503      C2557   1.474       .  S
C1507      C1784   1.490       .  S
C1510      C1754   1.575       .  S
C1510      C1764   1.583       .  S
C1510      C1787   1.580       .  S
C1510      C1904   1.593       .  S
In1511     O1513   2.290   1_455  S
In1511     O1514   2.210   1_455  S
In1511     O1522   2.275   1_455  S
In1511     O1516   2.225   1_455  S
In1511     O1518   2.264       .  S
In1511     O1519   2.270       .  S
In1511     O1520   2.263       .  S
In1511     O1523   2.233       .  S
C1512      O1518   1.258       .  A
C1512      O1520   1.260       .  A
C1512      C1747   1.481       .  S
O1513      C1521   1.265       .  A
O1514      C1521   1.257       .  A
C1515      O1522   1.264       .  A
C1515      O1516   1.256       .  A
C1515      C1757   1.489       .  S
C1517      O1519   1.259       .  A
C1517      O1523   1.259       .  A
C1517      C1734   1.485       .  S
C1521      C2294   1.485       .  S
In1524     O1526   2.220       .  S
In1524     O1527   2.257       .  S
In1524     O1535   2.234       .  S
In1524     O1532   2.237       .  S
C1525      O1531   1.262       .  A
C1525      O1533   1.264       .  A
C1525      C1707   1.466       .  S
O1526      C1534   1.257       .  A
O1527      C1534   1.270       .  A
C1528      O1535   1.263       .  A
C1528      C1717   1.469       .  S
C1530      O1536   1.259       .  A
C1530      C1724   1.485       .  S
C1534      C2477   1.475       .  S
C1537      C1684   1.599       .  S
C1537      C1694   1.591       .  S
C1537      C1727   1.598       .  S
C1537      C1737   1.566       .  S
In1538     O1540   2.264       .  S
In1538     O1541   2.267       .  S
In1538     O1549   2.243   1_455  S
In1538     O1543   2.298       .  S
In1538     O1545   2.253       .  S
In1538     O1546   2.274   1_455  S
In1538     O1547   2.270       .  S
In1538     O1550   2.256   1_455  S
C1539      O1545   1.260       .  A
C1539      O1547   1.262       .  A
C1539      C1697   1.495       .  S
O1540      C1548   1.263       .  A
O1541      C1548   1.261       .  A
C1542      O1549   1.258       .  A
C1542      O1543   1.263   1_655  A
C1542      C1894   1.502       .  S
C1544      O1546   1.260       .  A
C1544      O1550   1.259       .  A
C1544      C1767   1.490       .  S
C1548      C2377   1.491       .  S
C1551      C1674   1.564       .  S
C1551      C1704   1.550       .  S
C1551      C1927   1.559       .  S
C1551      C1947   1.554       .  S
In1552     O1554   2.224       .  S
In1552     O1555   2.255       .  S
In1552     O1563   2.238       .  S
In1552     O1557   2.202       .  S
In1552     O1559   2.213       .  S
In1552     O1560   2.264       .  S
In1552     O1561   2.203       .  S
In1552     O1564   2.213       .  S
C1553      O1559   1.265       .  A
C1553      O1561   1.261       .  A
C1553      C1677   1.462       .  S
O1554      C1562   1.257       .  A
O1555      C1562   1.271       .  A
C1556      O1563   1.264       .  A
C1556      O1557   1.262       .  A
C1556      C1654   1.472       .  S
C1558      O1560   1.268       .  A
C1558      O1564   1.259       .  A
C1558      C1664   1.481       .  S
C1562      C2487   1.478       .  S
C1565      C1634   1.608       .  S
C1565      C1644   1.600       .  S
C1565      C1667   1.596       .  S
C1565      C1807   1.570       .  S
In1566     O1568   2.259       .  S
In1566     O1569   2.259       .  S
In1566     O1577   2.238       .  S
In1566     O1571   2.277       .  S
In1566     O1573   2.277       .  S
In1566     O1574   2.260       .  S
In1566     O1575   2.238       .  S
In1566     O1578   2.248       .  S
C1567      O1573   1.263       .  A
C1567      O1575   1.260       .  A
C1567      C1647   1.483       .  S
O1568      C1576   1.263       .  A
O1569      C1576   1.258       .  A
C1570      O1577   1.257       .  A
C1570      O1571   1.261       .  A
C1570      C1874   1.484       .  S
C1572      O1574   1.262       .  A
C1572      O1578   1.260       .  A
C1572      C1837   1.492       .  S
C1576      C2417   1.490       .  S
C1579      C1637   1.589       .  S
C1579      C1934   1.567       .  S
C1579      C2117   1.572       .  S
C1580      C1687   1.589       .  S
C1580      C1744   1.587       .  S
C1580      C1917   1.574       .  S
C1580      C2207   1.569       .  S
In1581     O1583   2.212       .  S
In1581     O1586   2.182       .  S
In1581     O1588   2.213       .  S
In1581     O1590   2.213       .  S
C1582      O1588   1.259       .  A
C1582      O1590   1.264       .  A
C1582      C2194   1.470       .  S
O1583      C1591   1.256       .  A
C1585      O1592   1.263       .  A
C1585      C1714   1.466       .  S
C1587      O1589   1.266       .  A
C1587      O1593   1.257       .  A
C1587      C2464   1.467       .  S
C1591      C2387   1.478       .  S
In1594     O1596   2.210       .  S
In1594     O1597   2.255       .  S
In1594     O1605   2.253       .  S
In1594     O1599   2.199       .  S
In1594     O1601   2.210       .  S
In1594     O1602   2.250       .  S
In1594     O1603   2.211       .  S
In1594     O1606   2.218       .  S
C1595      O1601   1.263       .  A
C1595      O1603   1.261       .  A
C1595      C2187   1.464       .  S
O1596      C1604   1.258       .  A
O1597      C1604   1.264       .  A
C1598      O1605   1.263       .  A
C1598      O1599   1.257       .  A
C1598      C1657   1.468       .  S
C1600      O1602   1.267       .  A
C1600      O1606   1.257       .  A
C1600      C2454   1.466       .  S
C1604      C2427   1.482       .  S
In1607     O1612   2.213       .  S
In1607     O1614   2.232       .  S
In1607     O1616   2.213       .  S
In1607     O1619   2.234       .  S
C1608      O1614   1.259       .  A
C1608      O1616   1.262       .  A
C1608      C2057   1.463       .  S
O1609      C1617   1.262       .  A
O1610      C1617   1.258       .  A
C1611      O1618   1.264       .  A
C1611      C1777   1.475       .  S
C1613      O1619   1.257       .  A
C1613      C2304   1.477       .  S
C1617      C2544   1.480       .  S
In1620     O1622   2.241       .  S
In1620     O1623   2.255       .  S
In1620     O1631   2.258       .  S
In1620     O1625   2.201       .  S
In1620     O1627   2.217       .  S
In1620     O1628   2.253       .  S
In1620     O1629   2.211       .  S
In1620     O1632   2.225       .  S
C1621      O1627   1.260       .  A
C1621      O1629   1.259       .  A
C1621      C2047   1.463       .  S
O1622      C1630   1.258       .  A
O1623      C1630   1.263       .  A
C1624      O1631   1.266       .  A
C1624      O1625   1.259       .  A
C1624      C1857   1.474       .  S
C1626      O1628   1.266       .  A
C1626      O1632   1.258       .  A
C1626      C2347   1.481       .  S
C1630      C2534   1.488       .  S
C1633      C1634   1.428       .  A
C1633      C1638   1.412       .  A
C1633      H1640   1.077       .  S
C1634      C1635   1.429       .  A
C1635      C1636   1.406       .  A
C1635     Br1642   1.918       .  S
C1636      C1637   1.418       .  A
C1636      H1641   1.076       .  S
C1637      C1638   1.427       .  A
C1638     Br1639   1.923       .  S
C1643      C1644   1.425       .  A
C1643      C1648   1.392       .  A
C1643      H1650   1.078       .  S
C1644      C1645   1.438       .  A
C1645      C1646   1.412       .  A
C1645     Br1652   1.932       .  S
C1646      C1647   1.402       .  A
C1646      H1651   1.083       .  S
C1647      C1648   1.402       .  A
C1648     Br1649   1.925       .  S
C1653      C1654   1.402       .  A
C1653      C1658   1.389       .  A
C1653      H1660   1.084       .  S
C1654      C1655   1.412       .  A
C1655      C1656   1.400       .  A
C1655     Br1662   1.920       .  S
C1656      C1657   1.403       .  A
C1656      H1661   1.083       .  S
C1657      C1658   1.409       .  A
C1658     Br1659   1.924       .  S
C1663      C1664   1.394       .  A
C1663      C1668   1.406       .  A
C1663      H1670   1.084       .  S
C1664      C1665   1.400       .  A
C1665      C1666   1.395       .  A
C1665     Br1672   1.925       .  S
C1666      C1667   1.422       .  A
C1666      H1671   1.065       .  S
C1667      C1668   1.451       .  A
C1668     Br1669   1.938       .  S
C1673      C1674   1.420       .  A
C1673      C1678   1.388       .  A
C1673      H1680   1.080       .  S
C1674      C1675   1.434       .  A
C1675      C1676   1.394       .  A
C1675     Br1682   1.921       .  S
C1676      C1677   1.393       .  A
C1676      H1681   1.084       .  S
C1677      C1678   1.403       .  A
C1678     Br1679   1.925       .  S
C1683      C1684   1.421       .  A
C1683      C1688   1.408       .  A
C1683      H1690   1.081       .  S
C1684      C1685   1.435       .  A
C1685      C1686   1.409       .  A
C1685     Br1692   1.917       .  S
C1686      C1687   1.410       .  A
C1686      H1691   1.080       .  S
C1687      C1688   1.433       .  A
C1688     Br1689   1.930       .  S
C1693      C1694   1.423       .  A
C1693      C1698   1.403       .  A
C1693      H1700   1.066       .  S
C1694      C1695   1.444       .  A
C1695      C1696   1.404       .  A
C1695     Br1702   1.936       .  S
C1696      C1697   1.400       .  A
C1696      H1701   1.083       .  S
C1697      C1698   1.405       .  A
C1698     Br1699   1.922       .  S
C1703      C1704   1.413       .  A
C1703      C1708   1.390       .  A
C1703      H1710   1.076       .  S
C1704      C1705   1.432       .  A
C1705      C1706   1.389       .  A
C1705     Br1712   1.929       .  S
C1706      C1707   1.396       .  A
C1706      H1711   1.084       .  S
C1707      C1708   1.406       .  A
C1708     Br1709   1.925       .  S
C1713      C1714   1.404       .  A
C1713      C1718   1.397       .  A
C1713      H1720   1.084       .  S
C1715      C1716   1.384       .  A
C1715     Br1722   1.926       .  S
C1716      H1721   1.084       .  S
C1717      C1718   1.412       .  A
C1718     Br1719   1.921       .  S
C1723      C1724   1.409       .  A
C1723      C1728   1.408       .  A
C1723      H1730   1.083       .  S
C1724      C1725   1.400       .  A
C1725      C1726   1.389       .  A
C1726      C1727   1.430       .  A
C1726      H1731   1.076       .  S
C1727      C1728   1.428       .  A
C1728     Br1729   1.929       .  S
C1733      C1734   1.396       .  A
C1733      H1740   1.084       .  S
C1734      C1735   1.414       .  A
C1735      C1736   1.406       .  A
C1735     Br1742   1.920       .  S
C1737      C1738   1.436       .  A
C1738     Br1739   1.931       .  S
C1743      C1744   1.422       .  A
C1743      C1748   1.406       .  A
C1743      H1750   1.078       .  S
C1744      C1745   1.437       .  A
C1745      C1746   1.400       .  A
C1745     Br1752   1.912       .  S
C1746      C1747   1.391       .  A
C1746      H1751   1.084       .  S
C1747      C1748   1.405       .  A
C1748     Br1749   1.919       .  S
C1753      C1754   1.413       .  A
C1753      C1758   1.394       .  A
C1753      H1760   1.070       .  S
C1754      C1755   1.439       .  A
C1755      C1756   1.406       .  A
C1755     Br1762   1.927       .  S
C1756      C1757   1.400       .  A
C1756      H1761   1.084       .  S
C1757      C1758   1.409       .  A
C1758     Br1759   1.924   1_655  S
C1763      C1768   1.397   1_545  A
C1763      H1770   1.078       .  S
C1764      C1765   1.429       .  A
C1765      C1766   1.409       .  A
C1765     Br1772   1.916       .  S
C1766      H1771   1.083       .  S
C1767      C1768   1.407       .  A
C1768     Br1769   1.922       .  S
C1773      C1774   1.404   1_545  A
C1773      C1778   1.392       .  A
C1774      C1775   1.414       .  A
C1775      C1776   1.404       .  A
C1775     Br1782   1.919       .  S
C1776      C1777   1.404       .  A
C1776      H1781   1.083       .  S
C1777      C1778   1.411   1_565  A
C1783      C1784   1.406       .  A
C1783      C1788   1.406       .  A
C1783      H1790   1.083       .  S
C1784      C1785   1.405       .  A
C1785      C1786   1.398       .  A
C1786      C1787   1.423       .  A
C1786      H1791   1.080       .  S
C1787      C1788   1.424       .  A
C1788     Br1789   1.912       .  S
C1793      C1794   1.423       .  A
C1793      C1798   1.389       .  A
C1793      H1800   1.076       .  S
C1794      C1795   1.433       .  A
C1795      C1796   1.392       .  A
C1795     Br1802   1.926       .  S
C1796      C1797   1.397       .  A
C1796      H1801   1.084       .  S
C1797      C1798   1.403       .  A
C1798     Br1799   1.925       .  S
C1803      C1804   1.395       .  A
C1803      C1808   1.395       .  A
C1803      H1810   1.084       .  S
C1804      C1805   1.414       .  A
C1805      C1806   1.409       .  A
C1805     Br1812   1.919       .  S
C1806      C1807   1.417       .  A
C1806      H1811   1.079       .  S
C1807      C1808   1.438       .  A
C1808     Br1809   1.929       .  S
C1813      C1814   1.419       .  A
C1813      C1818   1.412       .  A
C1814      C1815   1.442       .  A
C1815      C1816   1.399       .  A
C1815     Br1822   1.935       .  S
C1816      C1817   1.397       .  A
C1816      H1821   1.084       .  S
C1817      C1818   1.414       .  A
C1818     Br1819   1.917       .  S
C1823      C1824   1.420       .  A
C1823      C1828   1.405       .  A
C1823      H1830   1.078       .  S
C1824      C1825   1.436       .  A
C1825      C1826   1.397       .  A
C1825     Br1832   1.926       .  S
C1826      C1827   1.395       .  A
C1826      H1831   1.084       .  S
C1827      C1828   1.407       .  A
C1828     Br1829   1.919       .  S
C1833      C1834   1.419       .  A
C1833      C1838   1.399       .  A
C1833      H1840   1.075       .  S
C1834      C1835   1.432       .  A
C1835      C1836   1.403       .  A
C1835     Br1842   1.923       .  S
C1836      C1837   1.401       .  A
C1836      H1841   1.083       .  S
C1837      C1838   1.409       .  A
C1838     Br1839   1.923       .  S
C1843      C1844   1.415       .  A
C1843      C1848   1.388       .  A
C1843      H1850   1.076       .  S
C1844      C1845   1.435       .  A
C1845      C1846   1.394       .  A
C1845     Br1852   1.927       .  S
C1846      C1847   1.390       .  A
C1846      H1851   1.084       .  S
C1847      C1848   1.399       .  A
C1848     Br1849   1.915       .  S
C1853      C1854   1.405       .  A
C1853      C1858   1.390       .  A
C1853      H1860   1.083       .  S
C1854      C1855   1.415       .  A
C1855      C1856   1.404       .  A
C1855     Br1862   1.919       .  S
C1856      C1857   1.404       .  A
C1856      H1861   1.083       .  S
C1857      C1858   1.410       .  A
C1858     Br1859   1.925       .  S
C1863      C1864   1.396       .  A
C1863      C1868   1.404       .  A
C1863      H1870   1.084       .  S
C1864      C1865   1.401       .  A
C1865      C1866   1.397       .  A
C1865     Br1872   1.921       .  S
C1866      C1867   1.421       .  A
C1866      H1871   1.079       .  S
C1867      C1868   1.434       .  A
C1868     Br1869   1.921       .  S
C1873      C1874   1.402       .  A
C1873      C1878   1.409   1_565  A
C1873      H1880   1.083       .  S
C1874      C1875   1.404       .  A
C1875      C1876   1.393       .  A
C1875     Br1882   1.922       .  S
C1876      C1877   1.417   1_565  A
C1876      H1881   1.077       .  S
C1877      C1878   1.433       .  A
C1883      C1884   1.415       .  A
C1883      C1888   1.404       .  A
C1883      H1890   1.079       .  S
C1884      C1885   1.427       .  A
C1885      C1886   1.404       .  A
C1885     Br1892   1.922       .  S
C1886      C1887   1.413       .  A
C1886      H1891   1.079       .  S
C1887      C1888   1.430       .  A
C1888     Br1889   1.930       .  S
C1893      C1894   1.407       .  A
C1893      C1898   1.414       .  A
C1893      H1900   1.083       .  S
C1894      C1895   1.410       .  A
C1895      C1896   1.397       .  A
C1895     Br1902   1.926       .  S
C1896      C1897   1.423       .  A
C1896      H1901   1.074       .  S
C1897      C1898   1.430       .  A
C1898     Br1899   1.921       .  S
C1903      C1904   1.418       .  A
C1903      C1908   1.411       .  A
C1903      H1910   1.081       .  S
C1904      C1905   1.438       .  A
C1905      C1906   1.411       .  A
C1905     Br1912   1.930       .  S
C1906      C1907   1.415       .  A
C1906      H1911   1.078       .  S
C1907      C1908   1.427       .  A
C1908     Br1909   1.926       .  S
C1913      C1914   1.392       .  A
C1913      C1918   1.400       .  A
C1913      H1920   1.085       .  S
C1914      C1915   1.397       .  A
C1915      C1916   1.401       .  A
C1915     Br1922   1.917       .  S
C1916      C1917   1.426       .  A
C1916      H1921   1.082       .  S
C1917      C1918   1.444       .  A
C1918     Br1919   1.926       .  S
C1923      C1924   1.393       .  A
C1923      C1928   1.384       .  A
C1923      H1930   1.084       .  S
C1924      C1925   1.405       .  A
C1925      C1926   1.394       .  A
C1925     Br1932   1.922       .  S
C1926      C1927   1.416       .  A
C1926      H1931   1.078       .  S
C1927      C1928   1.429       .  A
C1928     Br1929   1.921       .  S
C1933      C1934   1.419       .  A
C1933      C1938   1.404       .  A
C1934      C1935   1.435       .  A
C1935      C1936   1.395       .  A
C1935     Br1942   1.932       .  S
C1936      C1937   1.397       .  A
C1936      H1941   1.084       .  S
C1937      C1938   1.406       .  A
C1943      C1944   1.390       .  A
C1943      C1948   1.386       .  A
C1943      H1950   1.085       .  S
C1944      C1945   1.391       .  A
C1945      C1946   1.389       .  A
C1945     Br1952   1.918       .  S
C1946      C1947   1.426       .  A
C1946      H1951   1.081       .  S
C1947      C1948   1.430       .  A
C1948     Br1949   1.916       .  S
C1953      C1954   1.397       .  A
C1953      C1958   1.390       .  A
C1953      H1960   1.084       .  S
C1954      C1955   1.400       .  A
C1955      C1956   1.388       .  A
C1955     Br1962   1.921       .  S
C1956      C1957   1.422       .  A
C1956      H1961   1.083       .  S
C1957      C1958   1.437       .  A
C1958     Br1959   1.933       .  S
C1963      C1964   1.396       .  A
C1963      C1968   1.404       .  A
C1963      H1970   1.084       .  S
C1964      C1965   1.400       .  A
C1965      C1966   1.393       .  A
C1965     Br1972   1.923       .  S
C1966      C1967   1.421       .  A
C1966      H1971   1.078       .  S
C1967      C1968   1.436       .  A
C1968     Br1969   1.921       .  S
C1973      C1974   1.388       .  A
C1973      C1978   1.395       .  A
C1973      H1980   1.084       .  S
C1974      C1975   1.394       .  A
C1975      C1976   1.383       .  A
C1976      C1977   1.409       .  A
C1976      H1981   1.073       .  S
C1977      C1978   1.440       .  A
C1978     Br1979   1.926       .  S
C1983      C1984   1.415       .  A
C1983      C1988   1.398       .  A
C1983      H1990   1.080       .  S
C1985      C1986   1.398       .  A
C1985     Br1992   1.930   1_545  S
C1986      H1991   1.084   1_545  S
C1987      C1988   1.410       .  A
C1988     Br1989   1.921       .  S
C1993      C1994   1.397       .  A
C1993      C1998   1.401       .  A
C1993      H2000   1.084       .  S
C1994      C1995   1.407       .  A
C1995      C1996   1.401       .  A
C1995     Br2002   1.916       .  S
C1996      C1997   1.418       .  A
C1996      H2001   1.080       .  S
C1997      C1998   1.438       .  A
C1998     Br1999   1.929       .  S
C2003      C2004   1.411       .  A
C2003      C2008   1.403   1_556  A
C2003      H2010   1.078       .  S
C2004      C2005   1.443   1_556  A
C2005      C2006   1.401       .  A
C2005     Br2012   1.934       .  S
C2006      C2007   1.397       .  A
C2006      H2011   1.084       .  S
C2007      C2008   1.408       .  A
C2008     Br2009   1.920       .  S
C2013      C2014   1.402       .  A
C2014      C2015   1.416   1_545  A
C2015      C2016   1.404       .  A
C2015     Br2022   1.920       .  S
C2016      C2017   1.404   1_565  A
C2016      H2021   1.084       .  S
C2018     Br2019   1.924       .  S
C2023      C2024   1.394       .  A
C2023      C2028   1.399       .  A
C2024      C2025   1.406       .  A
C2025      C2026   1.401       .  A
C2025     Br2032   1.919       .  S
C2026      C2027   1.416       .  A
C2026      H2031   1.078       .  S
C2027      C2028   1.441       .  A
C2028     Br2029   1.934       .  S
C2033      C2034   1.398       .  A
C2033      C2038   1.402       .  A
C2033      H2040   1.084       .  S
C2034      C2035   1.405       .  A
C2035      C2036   1.389       .  A
C2035     Br2042   1.923       .  S
C2036      C2037   1.420       .  A
C2036      H2041   1.083       .  S
C2037      C2038   1.439       .  A
C2038     Br2039   1.929       .  S
C2043      C2044   1.420       .  A
C2043      C2048   1.385       .  A
C2043      H2050   1.081       .  S
C2044      C2045   1.434       .  A
C2045      C2046   1.396       .  A
C2045     Br2052   1.925       .  S
C2046      C2047   1.397       .  A
C2046      H2051   1.084       .  S
C2047      C2048   1.402       .  A
C2048     Br2049   1.924       .  S
C2053      C2054   1.422       .  A
C2053      C2058   1.393       .  A
C2053      H2060   1.073       .  S
C2054      C2055   1.436       .  A
C2055      C2056   1.391       .  A
C2055     Br2062   1.909       .  S
C2056      C2057   1.388       .  A
C2056      H2061   1.085       .  S
C2057      C2058   1.400       .  A
C2063      C2064   1.391       .  A
C2063      C2068   1.401       .  A
C2063      H2070   1.085       .  S
C2064      C2065   1.403       .  A
C2065      C2066   1.400       .  A
C2065     Br2072   1.920       .  S
C2066      C2067   1.427       .  A
C2066      H2071   1.082       .  S
C2067      C2068   1.437       .  A
C2068     Br2069   1.901       .  S
C2073      C2074   1.414       .  A
C2073      C2078   1.403   1_556  A
C2073      H2080   1.083       .  S
C2074      C2075   1.438       .  A
C2075      C2076   1.403   1_556  A
C2075     Br2082   1.930   1_556  S
C2076      C2077   1.398       .  A
C2076      H2081   1.084       .  S
C2077      C2078   1.411       .  A
C2078     Br2079   1.920   1_654  S
C2083      C2084   1.422       .  A
C2083      C2088   1.399       .  A
C2083      H2090   1.084       .  S
C2084      C2085   1.438       .  A
C2085      C2086   1.392       .  A
C2085     Br2092   1.936       .  S
C2086      C2087   1.394       .  A
C2086      H2091   1.085       .  S
C2087      C2088   1.399       .  A
C2088     Br2089   1.918       .  S
C2093      C2094   1.406       .  A
C2093      C2098   1.391       .  A
C2093      H2100   1.083       .  S
C2094      C2095   1.411       .  A
C2095      C2096   1.403       .  A
C2095     Br2102   1.919       .  S
C2096      C2097   1.409       .  A
C2096      H2101   1.083       .  S
C2097      C2098   1.412       .  A
C2098     Br2099   1.925       .  S
C2103      C2104   1.426       .  A
C2103      C2108   1.397       .  A
C2103      H2110   1.083       .  S
C2104      C2105   1.436       .  A
C2105      C2106   1.402       .  A
C2105     Br2112   1.922       .  S
C2106      C2107   1.398       .  A
C2106      H2111   1.084       .  S
C2107      C2108   1.399       .  A
C2108     Br2109   1.919   1_556  S
C2113      C2114   1.406       .  A
C2113      C2118   1.410       .  A
C2113      H2120   1.083       .  S
C2114      C2115   1.410       .  A
C2115      C2116   1.397       .  A
C2115     Br2122   1.923       .  S
C2116      C2117   1.417       .  A
C2116      H2121   1.075       .  S
C2117      C2118   1.431       .  A
C2118     Br2119   1.922       .  S
C2123      C2124   1.400   1_545  A
C2123      H2130   1.084       .  S
C2124      C2125   1.405       .  A
C2125      C2126   1.401   1_565  A
C2125     Br2132   1.921       .  S
C2126      H2131   1.081       .  S
C2127      C2128   1.432       .  A
C2128     Br2129   1.916       .  S
C2133      C2134   1.423       .  A
C2133      C2138   1.403   1_554  A
C2133      H2140   1.079       .  S
C2134      C2135   1.429       .  A
C2135      C2136   1.399       .  A
C2135     Br2142   1.916       .  S
C2136      C2137   1.401   1_554  A
C2136      H2141   1.083       .  S
C2137      C2138   1.409       .  A
C2138     Br2139   1.921       .  S
C2143      C2144   1.420       .  A
C2143      H2150   1.075       .  S
C2145      C2146   1.402       .  A
C2145     Br2152   1.921       .  S
C2146      C2147   1.398       .  A
C2146      H2151   1.084       .  S
C2147      C2148   1.404       .  A
C2148     Br2149   1.925       .  S
C2153      C2154   1.403       .  A
C2153      C2158   1.402       .  A
C2153      H2160   1.083       .  S
C2154      C2155   1.407       .  A
C2155      C2156   1.391       .  A
C2155     Br2162   1.922       .  S
C2156      C2157   1.401       .  A
C2156      H2161   1.084       .  S
C2157      C2158   1.409       .  A
C2158     Br2159   1.918       .  S
C2163      C2164   1.399       .  A
C2163      C2168   1.407       .  A
C2163      H2170   1.084       .  S
C2164      C2165   1.394       .  A
C2165      C2166   1.395       .  A
C2166      C2167   1.429       .  A
C2166      H2171   1.082       .  S
C2167      C2168   1.437       .  A
C2168     Br2169   1.924       .  S
C2173      C2174   1.424       .  A
C2173      C2178   1.390       .  A
C2173      H2180   1.079       .  S
C2174      C2175   1.431       .  A
C2175      C2176   1.385       .  A
C2175     Br2182   1.912       .  S
C2176      C2177   1.389       .  A
C2176      H2181   1.086       .  S
C2177      C2178   1.393       .  A
C2178     Br2179   1.918       .  S
C2183      C2184   1.422       .  A
C2183      C2188   1.387       .  A
C2183      H2190   1.080       .  S
C2184      C2185   1.432       .  A
C2185      C2186   1.395       .  A
C2185     Br2192   1.917       .  S
C2186      C2187   1.394       .  A
C2186      H2191   1.084       .  S
C2187      C2188   1.402       .  A
C2188     Br2189   1.925       .  S
C2193      C2194   1.395       .  A
C2193      C2198   1.389       .  A
C2193      H2200   1.084       .  S
C2194      C2195   1.406       .  A
C2195      C2196   1.394       .  A
C2195     Br2202   1.923       .  S
C2196      C2197   1.413       .  A
C2196      H2201   1.077       .  S
C2197      C2198   1.434       .  A
C2198     Br2199   1.929       .  S
C2203      C2204   1.401       .  A
C2203      C2208   1.400       .  A
C2203      H2210   1.083       .  S
C2204      C2205   1.408       .  A
C2205      C2206   1.404       .  A
C2205     Br2212   1.919       .  S
C2206      C2207   1.416       .  A
C2206      H2211   1.074       .  S
C2207      C2208   1.431       .  A
C2208     Br2209   1.928       .  S
C2213      C2214   1.395       .  A
C2213      C2218   1.399       .  A
C2213      H2220   1.084       .  S
C2214      C2215   1.404       .  A
C2215      C2216   1.398       .  A
C2215     Br2222   1.924   1_655  S
C2216      C2217   1.423       .  A
C2216      H2221   1.062       .  S
C2217      C2218   1.445       .  A
C2218     Br2219   1.930       .  S
C2223      C2224   1.398       .  A
C2223      C2228   1.408   1_556  A
C2223      H2230   1.084       .  S
C2224      C2225   1.401       .  A
C2225      C2226   1.391   1_556  A
C2225     Br2232   1.921       .  S
C2226      C2227   1.421       .  A
C2226      H2231   1.078       .  S
C2227      C2228   1.434       .  A
C2228     Br2229   1.922       .  S
C2233      C2234   1.390       .  A
C2233      C2238   1.395       .  A
C2233      H2240   1.084       .  S
C2234      C2235   1.406       .  A
C2235      C2236   1.404       .  A
C2235     Br2242   1.919       .  S
C2236      C2237   1.418       .  A
C2236      H2241   1.078       .  S
C2237      C2238   1.439       .  A
C2238     Br2239   1.925       .  S
C2243      C2244   1.395       .  A
C2243      C2248   1.387       .  A
C2243      H2250   1.084       .  S
C2244      C2245   1.404       .  A
C2245      C2246   1.392       .  A
C2245     Br2252   1.922       .  S
C2246      C2247   1.416       .  A
C2246      H2251   1.077       .  S
C2247      C2248   1.431       .  A
C2248     Br2249   1.928       .  S
C2253      C2254   1.404       .  A
C2253      C2258   1.400       .  A
C2253      H2260   1.083       .  S
C2254      C2255   1.411       .  A
C2255      C2256   1.389       .  A
C2255     Br2262   1.924       .  S
C2256      C2257   1.399       .  A
C2256      H2261   1.084       .  S
C2257      C2258   1.408       .  A
C2258     Br2259   1.919       .  S
C2263      C2264   1.420       .  A
C2263      C2268   1.397       .  A
C2263      H2270   1.074       .  S
C2264      C2265   1.435       .  A
C2265      C2266   1.406       .  A
C2265     Br2272   1.924       .  S
C2266      C2267   1.397       .  A
C2266      H2271   1.084       .  S
C2267      C2268   1.404       .  A
C2268     Br2269   1.923   1_554  S
C2273      C2274   1.414       .  A
C2273      C2278   1.400       .  A
C2273      H2280   1.073       .  S
C2274      C2275   1.433       .  A
C2275      C2276   1.408       .  A
C2275     Br2282   1.928       .  S
C2276      C2277   1.418       .  A
C2276      H2281   1.082       .  S
C2277      C2278   1.432       .  A
C2278     Br2279   1.928       .  S
C2283      C2284   1.402       .  A
C2283      C2288   1.402   1_565  A
C2283      H2290   1.083       .  S
C2284      C2285   1.410       .  A
C2285      C2286   1.395       .  A
C2285     Br2292   1.924       .  S
C2286      C2287   1.419   1_565  A
C2286      H2291   1.077       .  S
C2287      C2288   1.431       .  A
C2288     Br2289   1.924       .  S
C2293      C2294   1.397       .  A
C2293      C2298   1.394       .  A
C2293      H2300   1.084       .  S
C2294      C2295   1.404       .  A
C2295      C2296   1.406       .  A
C2295     Br2302   1.917       .  S
C2296      C2297   1.425       .  A
C2296      H2301   1.083       .  S
C2297      C2298   1.441       .  A
C2303      C2304   1.389       .  A
C2303      C2308   1.398       .  A
C2303      H2310   1.085       .  S
C2304      C2305   1.400       .  A
C2305      C2306   1.400       .  A
C2305     Br2312   1.921       .  S
C2306      C2307   1.421       .  A
C2306      H2311   1.067       .  S
C2307      C2308   1.446       .  A
C2308     Br2309   1.921       .  S
C2313      C2314   1.417       .  A
C2313      C2318   1.406       .  A
C2313      H2320   1.083       .  S
C2314      C2315   1.434       .  A
C2315      C2316   1.404       .  A
C2315     Br2322   1.933       .  S
C2316      C2317   1.416       .  A
C2316      H2321   1.077       .  S
C2317      C2318   1.425       .  A
C2318     Br2319   1.919       .  S
C2323      C2324   1.420       .  A
C2323      C2328   1.399       .  A
C2323      H2330   1.078       .  S
C2324      C2325   1.428       .  A
C2325      C2326   1.408       .  A
C2325     Br2332   1.915       .  S
C2326      C2327   1.404       .  A
C2326      H2331   1.083       .  S
C2327      C2328   1.409       .  A
C2328     Br2329   1.922       .  S
C2333      C2334   1.426       .  A
C2333      C2338   1.402       .  A
C2333      H2340   1.082       .  S
C2334      C2335   1.439       .  A
C2335      C2336   1.399       .  A
C2335     Br2342   1.927       .  S
C2336      C2337   1.397       .  A
C2336      H2341   1.084       .  S
C2337      C2338   1.403       .  A
C2338     Br2339   1.919       .  S
C2343      C2344   1.421       .  A
C2343      C2348   1.399       .  A
C2343      H2350   1.079       .  S
C2344      C2345   1.434       .  A
C2345      C2346   1.398       .  A
C2345     Br2352   1.916       .  S
C2346      C2347   1.394       .  A
C2346      H2351   1.084       .  S
C2347      C2348   1.408       .  A
C2348     Br2349   1.921       .  S
C2353      C2354   1.401       .  A
C2353      C2358   1.411       .  A
C2353      H2360   1.084       .  S
C2354      C2355   1.402       .  A
C2355      C2356   1.399       .  A
C2355     Br2362   1.922       .  S
C2356      C2357   1.424       .  A
C2356      H2361   1.073       .  S
C2357      C2358   1.439       .  A
C2358     Br2359   1.923       .  S
C2363      C2364   1.412       .  A
C2363      C2368   1.411       .  A
C2363      H2370   1.081       .  S
C2364      C2365   1.440       .  A
C2365      C2366   1.401       .  A
C2365     Br2372   1.937       .  S
C2366      C2367   1.410       .  A
C2366      H2371   1.078       .  S
C2367      C2368   1.431       .  A
C2368     Br2369   1.921       .  S
C2373      C2374   1.424       .  A
C2373      C2378   1.406       .  A
C2373      H2380   1.068       .  S
C2374      C2375   1.453       .  A
C2375      C2376   1.403       .  A
C2375     Br2382   1.936       .  S
C2376      C2377   1.392       .  A
C2376      H2381   1.085       .  S
C2377      C2378   1.403       .  A
C2378     Br2379   1.921   1_455  S
C2383      C2384   1.422       .  A
C2383      C2388   1.392       .  A
C2383      H2390   1.084       .  S
C2384      C2385   1.439   1_565  A
C2385      C2386   1.402       .  A
C2386      C2387   1.398   1_545  A
C2387      C2388   1.408       .  A
C2388     Br2389   1.923       .  S
C2393      C2394   1.395       .  A
C2393      C2398   1.406       .  A
C2393      H2400   1.084       .  S
C2394      C2395   1.395       .  A
C2395      C2396   1.392       .  A
C2395     Br2402   1.918       .  S
C2396      C2397   1.422       .  A
C2396      H2401   1.079       .  S
C2397      C2398   1.436       .  A
C2398     Br2399   1.918       .  S
C2403      C2404   1.412       .  A
C2403      C2408   1.400       .  A
C2403      H2410   1.073       .  S
C2404      C2405   1.430       .  A
C2405      C2406   1.410       .  A
C2405     Br2412   1.922       .  S
C2406      C2407   1.417       .  A
C2406      H2411   1.083       .  S
C2407      C2408   1.437       .  A
C2408     Br2409   1.933       .  S
C2413      C2414   1.419       .  A
C2413      C2418   1.403       .  A
C2413      H2420   1.083       .  S
C2414      C2415   1.440       .  A
C2415      C2416   1.400       .  A
C2415     Br2422   1.931       .  S
C2416      C2417   1.396       .  A
C2416      H2421   1.084       .  S
C2417      C2418   1.410       .  A
C2418     Br2419   1.919       .  S
C2423      C2424   1.422       .  A
C2423      C2428   1.398       .  A
C2423      H2430   1.078       .  S
C2424      C2425   1.427       .  A
C2425      C2426   1.395       .  A
C2425     Br2432   1.924       .  S
C2426      C2427   1.402       .  A
C2426      H2431   1.083       .  S
C2427      C2428   1.407       .  A
C2428     Br2429   1.922       .  S
C2433      C2434   1.413       .  A
C2433      C2438   1.408       .  A
C2433      H2440   1.081       .  S
C2434      C2435   1.446       .  A
C2435      C2436   1.396       .  A
C2435     Br2442   1.933       .  S
C2436      C2437   1.390       .  A
C2436      H2441   1.084       .  S
C2437      C2438   1.415       .  A
C2438     Br2439   1.921       .  S
C2443      C2444   1.433       .  A
C2443      C2448   1.398       .  A
C2443      H2450   1.081       .  S
C2444      C2445   1.427       .  A
C2445      C2446   1.410       .  A
C2445     Br2452   1.908       .  S
C2446      C2447   1.406       .  A
C2446      H2451   1.084       .  S
C2447      C2448   1.397       .  A
C2448     Br2449   1.920       .  S
C2453      C2454   1.400       .  A
C2453      C2458   1.404       .  A
C2453      H2460   1.084       .  S
C2454      C2455   1.388       .  A
C2455      C2456   1.388       .  A
C2455     Br2462   1.920       .  S
C2456      C2457   1.431       .  A
C2456      H2461   1.080       .  S
C2457      C2458   1.436       .  A
C2458     Br2459   1.923       .  S
C2463      C2464   1.383       .  A
C2463      C2468   1.393       .  A
C2463      H2470   1.084       .  S
C2464      C2465   1.404       .  A
C2465      C2466   1.405       .  A
C2465     Br2472   1.915       .  S
C2466      C2467   1.415       .  A
C2466      H2471   1.080       .  S
C2467      C2468   1.441       .  A
C2468     Br2469   1.915       .  S
C2473      C2474   1.411       .  A
C2473      C2478   1.404       .  A
C2473      H2480   1.079       .  S
C2474      C2475   1.444       .  A
C2475      C2476   1.396       .  A
C2475     Br2482   1.925       .  S
C2476      C2477   1.386       .  A
C2476      H2481   1.084       .  S
C2477      C2478   1.407       .  A
C2478     Br2479   1.915       .  S
C2483      C2484   1.410       .  A
C2483      C2488   1.402       .  A
C2483      H2490   1.079       .  S
C2484      C2485   1.441       .  A
C2485      C2486   1.396       .  A
C2485     Br2492   1.924       .  S
C2486      C2487   1.388       .  A
C2486      H2491   1.084       .  S
C2487      C2488   1.409       .  A
C2488     Br2489   1.912       .  S
C2493      C2494   1.429       .  A
C2493      C2498   1.394       .  A
C2493      H2500   1.078       .  S
C2494      C2495   1.429       .  A
C2495      C2496   1.410       .  A
C2495     Br2502   1.919       .  S
C2496      C2497   1.407       .  A
C2496      H2501   1.084       .  S
C2497      C2498   1.398       .  A
C2498     Br2499   1.922       .  S
C2503      C2504   1.404       .  A
C2503      C2508   1.408       .  A
C2503      H2510   1.084       .  S
C2504      C2505   1.394       .  A
C2505      C2506   1.391       .  A
C2505     Br2512   1.922       .  S
C2506      C2507   1.429       .  A
C2506      H2511   1.078       .  S
C2507      C2508   1.429       .  A
C2508     Br2509   1.918       .  S
C2513      C2514   1.420       .  A
C2513      C2518   1.389       .  A
C2513      H2520   1.083       .  S
C2514      C2515   1.437       .  A
C2515      C2516   1.403       .  A
C2515     Br2522   1.925       .  S
C2516      C2517   1.398       .  A
C2516      H2521   1.084       .  S
C2517      C2518   1.400       .  A
C2518     Br2519   1.918       .  S
C2523      C2524   1.431       .  A
C2523      C2528   1.396       .  A
C2523      H2530   1.080       .  S
C2524      C2525   1.432       .  A
C2525      C2526   1.401       .  A
C2525     Br2532   1.912       .  S
C2526      C2527   1.398       .  A
C2526      H2531   1.084       .  S
C2527      C2528   1.394       .  A
C2528     Br2529   1.918       .  S
C2533      C2534   1.398       .  A
C2533      C2538   1.401       .  A
C2533      H2540   1.083       .  S
C2534      C2535   1.406       .  A
C2535      C2536   1.401       .  A
C2535     Br2542   1.923       .  S
C2536      C2537   1.424       .  A
C2536      H2541   1.075       .  S
C2537      C2538   1.440       .  A
C2538     Br2539   1.928       .  S
C2543      C2544   1.397       .  A
C2543      C2548   1.403       .  A
C2543      H2550   1.083       .  S
C2544      C2545   1.408       .  A
C2545      C2546   1.396       .  A
C2545     Br2552   1.927       .  S
C2546      C2547   1.420       .  A
C2546      H2551   1.079       .  S
C2547      C2548   1.434       .  A
C2548     Br2549   1.923       .  S
C2553      C2554   1.430       .  A
C2553      C2558   1.400       .  A
C2553      H2560   1.083       .  S
C2554      C2555   1.434       .  A
C2555      C2556   1.401       .  A
C2555     Br2562   1.921       .  S
C2556      C2557   1.398       .  A
C2556      H2561   1.085       .  S
C2557      C2558   1.394       .  A
C2558     Br2559   1.916       .  S
C2563      C2564   1.423       .  A
C2563      C2568   1.401       .  A
C2563      H2570   1.077       .  S
C2564      C2565   1.435       .  A
C2565      C2566   1.397       .  A
C2565     Br2572   1.926       .  S
C2566      C2567   1.397       .  A
C2566      H2571   1.084       .  S
C2567      C2568   1.406       .  A
C2568     Br2569   1.921       .  S
C2573      C2574   1.412       .  A
C2573      C2578   1.392       .  A
C2573      H2580   1.077       .  S
C2574      C2575   1.438       .  A
C2575      C2576   1.403       .  A
C2575     Br2582   1.920       .  S
C2576      C2577   1.393       .  A
C2576      H2581   1.084       .  S
C2577      C2578   1.407       .  A
C2578     Br2579   1.913       .  S
C2583      C2584   1.400       .  A
C2583      C2588   1.400       .  A
C2583      H2590   1.083       .  S
C2584      C2585   1.406       .  A
C2585      C2586   1.399       .  A
C2585     Br2592   1.923       .  S
C2586      C2587   1.422       .  A
C2586      H2591   1.076       .  S
C2587      C2588   1.434       .  A
C2588     Br2589   1.928       .  S
