geometry optimzed in LAMMPS
_audit_creation_date              2020-11-30 
_audit_creation_method            'lammps2cif' 
_symmetry_space_group_name_H-M    'P1' 
_symmetry_Int_Tables_number       1 
_symmetry_cell_setting            triclinic 
loop_ 
_symmetry_equiv_pos_as_xyz 
  x,y,z 
_cell_length_a                    55.60307805 
_cell_length_b                    59.20129521994423 
_cell_length_c                    58.85885044913148 
_cell_angle_alpha                 90.64892110145942 
_cell_angle_beta                  89.94629573373909 
_cell_angle_gamma                 88.24434700753639 
loop_ 
_atom_site_label 
_atom_site_type_symbol 
_atom_site_fract_x 
_atom_site_fract_y 
_atom_site_fract_z 
_atom_site_charge 
Zr1        Zr  0.78874840  0.75958937  0.76809708     2.17500
O2          O  0.82752789  0.77775685  0.77024396    -0.51300
O3          O  0.77769874  0.77195221  0.80658366    -0.74500
O4          O  0.78688475  0.79979398  0.75885847    -0.81300
O5          O  0.82007044  0.70415494  0.78688658    -0.83100
O6          O  0.75826969  0.80626165  0.73219497    -0.78700
O7          O  0.82259173  0.74236503  0.78752633    -0.90300
O8          O  0.74207976  0.75666091  0.81566057    -0.76300
O9          O  0.74681204  0.76797403  0.76530922    -0.85800
O10         O  0.76993072  0.72886586  0.78613830    -0.85500
O11         O  0.78151707  0.76171230  0.72784199    -0.72200
O12         O  0.80186076  0.72577195  0.74788145    -0.84400
Zr13       Zr  0.73177880  0.70595647  0.72276327     2.26400
Zr14       Zr  0.73907402  0.76993868  0.72528129     2.06300
Zr15       Zr  0.78239914  0.69514512  0.76606673     2.10000
Zr16       Zr  0.72795222  0.73684686  0.78263172     1.78800
O17         O  0.81206962  0.66583077  0.75543762    -0.93200
O18         O  0.69716701  0.76589744  0.79115620    -0.41000
O19         O  0.73996930  0.70297573  0.76269556    -0.77600
O20         O  0.71895844  0.73954913  0.74320368    -0.96300
O21         O  0.75114962  0.73625328  0.70480778    -0.89600
O22         O  0.77372224  0.69683825  0.72606776    -0.92400
C23         C  0.76053992  0.76809891  0.82054095     1.01300
C24         C  0.83084892  0.72254591  0.79233471     1.14200
C25         C  0.77525065  0.81300731  0.74526202     1.05000
O26         O  0.70893390  0.79864076  0.73645836    -0.94600
O27         O  0.70177409  0.76231458  0.70469668    -0.90300
O28         O  0.69923269  0.72423026  0.70186813    -0.83500
C29         C  0.69105945  0.74438111  0.69817748     1.11700
O30         O  0.83246066  0.74372066  0.70646767    -0.96600
Zr31       Zr  0.79288942  0.72716102  0.70804343     1.88900
O32         O  0.74047194  0.69417521  0.68372220    -0.73200
O33         O  0.74459359  0.78581673  0.68771158    -0.52500
O34         O  0.79918697  0.74930185  0.67403520    -0.97200
O35         O  0.82299172  0.69654725  0.70408905    -0.54400
O36         O  0.77738188  0.70704862  0.67479788    -0.73700
C37         C  0.75793049  0.69687869  0.66980263     0.98600
O38         O  0.69311955  0.68787374  0.72752088    -0.62600
O39         O  0.77823670  0.67813431  0.80335245    -0.57400
O40         O  0.73442796  0.66570991  0.72981860    -0.94000
O41         O  0.75935858  0.66032650  0.76005550    -0.92500
O42         O  0.72396920  0.70993592  0.81330149    -0.92800
O43         O  0.68718537  0.72289410  0.78306971    -0.91600
C44         C  0.74374443  0.65333889  0.74549079     1.17400
H45         H  0.77474927  0.72759443  0.80180655     0.33400
H46         H  0.70171179  0.74179797  0.74222792     0.44200
H47         H  0.77768987  0.68257940  0.71861208     0.37800
H48         H  0.79049733  0.77384984  0.72132082     0.34300
H49         H  0.69343585  0.76400422  0.80746591     0.26000
H50         H  0.73900862  0.77408141  0.67699073     0.32000
H51         H  0.78416204  0.75851964  0.67233734     0.37900
H52         H  0.70968903  0.71539832  0.82205384     0.32300
H53         H  0.78350308  0.68968071  0.81441717     0.31200
H54         H  0.81690853  0.65887041  0.77002768     0.32900
H55         H  0.81461234  0.68401812  0.69651766     0.31900
H56         H  0.68841186  0.70819769  0.77490152     0.35900
H57         H  0.69427038  0.67967773  0.74207208     0.28600
H58         H  0.82544303  0.79023990  0.78149117     0.32800
H59         H  0.84061172  0.73663191  0.69310433     0.35700
H60         H  0.76066352  0.67736593  0.80576614     0.28300
H61         H  0.68124116  0.70026327  0.73088218     0.41200
H62         H  0.69887595  0.79113814  0.74783490     0.31200
H63         H  0.70564240  0.78034169  0.79051646     0.38800
H64         H  0.82588433  0.69128291  0.71978261     0.30700
H65         H  0.73221268  0.79815293  0.68677171     0.30800
H66         H  0.82983992  0.78519258  0.75544854     0.31000
C67         C  0.87475497  0.98715614  0.78151420     0.86500
C68         C  0.85900587  0.96667112  0.77670458    -0.53800
C69         C  0.84650510  0.96767975  0.75681247     0.09400
C70         C  0.85115805  0.98917716  0.74287111     0.20400
C71         C  0.89097873  0.98765678  0.76017356    -0.54500
C72         C  0.87886982  0.98921085  0.73990752     0.09500
C73         C  0.85718320  0.00750344  0.77953178    -0.54000
C74         C  0.84537310  0.00932812  0.75929217     0.10100
H75         H  0.85819261  0.95178465  0.78712800     0.14600
H76         H  0.84100034  0.98963958  0.72668096     0.00300
H77         H  0.91049479  0.98710716  0.76109947     0.14900
H78         H  0.85413233  0.01932092  0.79350530     0.14700
Zr79       Zr  0.76717994  0.20767039  0.72528766     2.17500
O80         O  0.80603493  0.18766280  0.72857152    -0.51300
O81         O  0.76123058  0.19615536  0.68625482    -0.74500
O82         O  0.76343352  0.16735729  0.73085147    -0.81300
O83         O  0.79863363  0.26273585  0.71275308    -0.83100
O84         O  0.73176077  0.16157580  0.75434167    -0.78700
O85         O  0.80273471  0.22457075  0.70998406    -0.90300
O86         O  0.72432839  0.20980466  0.67555722    -0.76300
O87         O  0.72522367  0.20095899  0.72446423    -0.85800
O88         O  0.74927421  0.23937035  0.70640056    -0.85500
O89         O  0.75552425  0.20428250  0.76436953    -0.72200
O90         O  0.77757662  0.24021338  0.74717247    -0.84400
Zr91       Zr  0.70481815  0.26308036  0.76695974     2.26400
Zr92       Zr  0.71290773  0.19872739  0.76329289     2.06300
Zr93       Zr  0.75884675  0.27186616  0.72866033     2.10000
Zr94       Zr  0.70727056  0.23277312  0.70615913     1.78800
O95         O  0.78751188  0.29842100  0.74380155    -0.93200
O96         O  0.67717575  0.20493083  0.69736059    -0.41000
O97         O  0.71636888  0.26603360  0.72777064    -0.77600
O98         O  0.69409501  0.23051985  0.74474544    -0.96300
O99         O  0.72294573  0.23130318  0.78553010    -0.89600
O100        O  0.74683396  0.26961975  0.76760210    -0.92400
C101        C  0.74408690  0.19864861  0.67192985     1.01300
C102        C  0.81068195  0.24452788  0.70746808     1.14200
C103        C  0.74973518  0.15447055  0.74208333     1.05000
O104        O  0.68048969  0.17690202  0.74725181    -0.94600
O105        O  0.67616940  0.20763635  0.78505347    -0.90300
O106        O  0.67100780  0.24593576  0.78532784    -0.83500
C107        C  0.66439960  0.22602780  0.79034445     1.11700
O108        O  0.80428631  0.21869357  0.79037773    -0.96600
Zr109      Zr  0.76501202  0.23756628  0.78570677     1.88900
O110        O  0.71423564  0.27774924  0.80475347    -0.73200
O111        O  0.71535705  0.17775866  0.79862231    -0.52500
O112        O  0.76381748  0.21392325  0.81929512    -0.97200
O113        O  0.79714933  0.26370557  0.79357027    -0.54400
O114        O  0.74974718  0.26147462  0.81605435    -0.73700
C115        C  0.73127099  0.27453415  0.81918662     0.98600
O116        O  0.66530826  0.28204334  0.77013940    -0.62600
O117        O  0.75821196  0.28853495  0.69102345    -0.57400
O118        O  0.70364265  0.30192905  0.75335608    -0.94000
O119        O  0.73743926  0.30831399  0.73299945    -0.92500
O120        O  0.70556078  0.25599315  0.67226283    -0.92800
O121        O  0.66797156  0.25128429  0.70097965    -0.91600
C122        C  0.71732339  0.31483692  0.74206851     1.17400
H123        H  0.75560294  0.24080666  0.69121187     0.33400
H124        H  0.67684579  0.22905569  0.74459492     0.44200
H125        H  0.75017286  0.28356228  0.77545540     0.37800
H126        H  0.76375403  0.19138279  0.77104139     0.34300
H127        H  0.67353995  0.20712387  0.68104886     0.26000
H128        H  0.70843051  0.16293528  0.79500000     0.32000
H129        H  0.76760087  0.19839110  0.81368263     0.37900
H130        H  0.72242385  0.25996465  0.66930018     0.32300
H131        H  0.74132535  0.29384298  0.68881264     0.31200
H132        H  0.78930476  0.30969146  0.73166480     0.32900
H133        H  0.79878587  0.26389613  0.81031991     0.31900
H134        H  0.67011143  0.26708201  0.70611548     0.35900
H135        H  0.66767777  0.29578939  0.77952327     0.28600
H136        H  0.80607817  0.17559251  0.71677629     0.32800
H137        H  0.80858471  0.22082156  0.80656673     0.35700
H138        H  0.76732755  0.30255838  0.69272857     0.28300
H139        H  0.66126158  0.28759386  0.75475739     0.41200
H140        H  0.68088256  0.16265589  0.75590763     0.31200
H141        H  0.68596586  0.19014639  0.69787104     0.38800
H142        H  0.79037054  0.27888061  0.78991908     0.30700
H143        H  0.73274001  0.17437891  0.80079911     0.30800
H144        H  0.80559800  0.17966874  0.74324635     0.31000
C145        C  0.61151496  0.49651971  0.71602697     0.86500
C146        C  0.62794811  0.47509625  0.71475350    -0.53800
C147        C  0.64438511  0.47301072  0.73180937     0.09400
C148        C  0.64246082  0.49248940  0.74952521     0.20400
C149        C  0.59981870  0.49456026  0.73972310    -0.54500
C150        C  0.61592242  0.49287544  0.75731300     0.09500
C151        C  0.62874322  0.51620713  0.71827451    -0.54000
C152        C  0.64467066  0.51443732  0.73588801     0.10100
H153        H  0.62535170  0.46134075  0.70277474     0.14600
H154        H  0.65553570  0.49085074  0.76371353     0.00300
H155        H  0.58050820  0.49516699  0.74248536     0.14900
H156        H  0.62799962  0.53068855  0.70709830     0.14700
C157        C  0.75613463  0.63883560  0.46484512     0.86500
C158        C  0.73081822  0.62907900  0.46479652    -0.53800
C159        C  0.72527192  0.61698102  0.48347987     0.09400
C160        C  0.74577629  0.61555292  0.50105498     0.20400
C161        C  0.75613882  0.65270182  0.48719956    -0.54500
C162        C  0.75143683  0.64053615  0.50634564     0.09500
C163        C  0.77306442  0.61840095  0.46891424    -0.54000
C164        C  0.76791506  0.60604470  0.48771161     0.10100
H165        H  0.71716273  0.63265063  0.45214862     0.14600
H166        H  0.74108583  0.60576750  0.51623289     0.00300
H167        H  0.75874475  0.67074704  0.48749172     0.14900
H168        H  0.78811877  0.61412702  0.45772487     0.14700
Zr169      Zr  0.72009725  0.79330049  0.23027905     2.17500
O170        O  0.67980776  0.81093398  0.22992361    -0.51300
O171        O  0.72549794  0.80779473  0.19188365    -0.74500
O172        O  0.71882525  0.83244295  0.24335825    -0.81300
O173        O  0.69280330  0.73719203  0.21288177    -0.83100
O174        O  0.75156438  0.83947695  0.26521741    -0.78700
O175        O  0.68486952  0.77503354  0.21572810    -0.90300
O176        O  0.76273928  0.79676265  0.17940482    -0.76300
O177        O  0.76135596  0.80274562  0.22886648    -0.85800
O178        O  0.73939374  0.76356783  0.20880261    -0.85500
O179        O  0.73264526  0.79499796  0.26945665    -0.72200
O180        O  0.71298307  0.75912304  0.25060303    -0.84400
Zr181      Zr  0.78771212  0.73981399  0.26592682     2.26400
Zr182      Zr  0.77460150  0.80364088  0.26770697     2.06300
Zr183      Zr  0.73273512  0.72942845  0.22905896     2.10000
Zr184      Zr  0.78077744  0.77273215  0.20793984     1.78800
O185        O  0.70440149  0.70119668  0.24069789    -0.93200
O186        O  0.81066376  0.80145144  0.20250880    -0.41000
O187        O  0.77448240  0.73789390  0.22716768    -0.77600
O188        O  0.79490495  0.77419644  0.24612123    -0.96300
O189        O  0.76841251  0.76929970  0.28757181    -0.89600
O190        O  0.74636710  0.73061255  0.26758108    -0.92400
C191        C  0.74240054  0.80715020  0.17697056     1.01300
C192        C  0.67900486  0.75486392  0.21048292     1.14200
C193        C  0.73163140  0.84546275  0.25560936     1.05000
O194        O  0.80199138  0.83179887  0.25404684    -0.94600
O195        O  0.81418090  0.79606910  0.28500130    -0.90300
O196        O  0.82018470  0.75780939  0.28599991    -0.83500
C197        C  0.82668322  0.77809866  0.28998204     1.11700
O198        O  0.68586177  0.77347631  0.29604360    -0.96600
Zr199      Zr  0.72718820  0.76021412  0.28902411     1.88900
O200        O  0.78366237  0.72486157  0.30401672    -0.73200
O201        O  0.77202497  0.81849622  0.30643051    -0.52500
O202        O  0.72695255  0.78472175  0.32261670    -0.97200
O203        O  0.69974183  0.73013278  0.29781511    -0.54400
O204        O  0.74819760  0.73866406  0.31831586    -0.73700
C205        C  0.76799266  0.72703895  0.31999012     0.98600
O206        O  0.82739205  0.72392830  0.25570856    -0.62600
O207        O  0.73621151  0.71378279  0.19072677    -0.57400
O208        O  0.78727475  0.69967394  0.25673179    -0.94000
O209        O  0.75494006  0.69329457  0.23425897    -0.92500
O210        O  0.78266738  0.75152975  0.17225427    -0.92800
O211        O  0.82015323  0.75548139  0.19963269    -0.91600
C212        C  0.77409333  0.68654771  0.24484235     1.17400
H213        H  0.73273092  0.76256133  0.19368409     0.33400
H214        H  0.81194717  0.77677518  0.24547851     0.44200
H215        H  0.74432513  0.71618679  0.27486082     0.37800
H216        H  0.72358885  0.80665950  0.27775106     0.34300
H217        H  0.81080868  0.80410546  0.18593135     0.26000
H218        H  0.78192470  0.83211119  0.30637311     0.32000
H219        H  0.74291843  0.78214098  0.32973603     0.37900
H220        H  0.76626629  0.74587713  0.17001739     0.32300
H221        H  0.75333218  0.70890968  0.18923638     0.31200
H222        H  0.70093651  0.69254541  0.22664051     0.32900
H223        H  0.70779129  0.72096149  0.30970571     0.31900
H224        H  0.81916562  0.73976213  0.20504232     0.35900
H225        H  0.82515382  0.71620104  0.24088810     0.28600
H226        H  0.68092386  0.82467492  0.22058137     0.32800
H227        H  0.68371916  0.77332714  0.31273657     0.35700
H228        H  0.72738285  0.69952391  0.19119389     0.28300
H229        H  0.83719082  0.73704331  0.25185700     0.41200
H230        H  0.80609153  0.84077565  0.26771994     0.31200
H231        H  0.80328846  0.81547268  0.20910831     0.38800
H232        H  0.69999786  0.72021252  0.28416170     0.30700
H233        H  0.75526729  0.82443007  0.30810799     0.30800
H234        H  0.67668034  0.81649445  0.24561308     0.31000
C235        C  0.74900894  0.84958930  0.97172097     0.86500
C236        C  0.77220530  0.86283006  0.97424811    -0.53800
C237        C  0.77276642  0.87658651  0.99291109     0.09400
C238        C  0.74968123  0.87668643  0.00716014     0.20400
C239        C  0.74543121  0.83772917  0.99463618    -0.54500
C240        C  0.74623003  0.85175701  0.01333739     0.09500
C241        C  0.72904315  0.86834700  0.97178645    -0.54000
C242        C  0.72930077  0.88217034  0.99040328     0.10100
H243        H  0.78711235  0.86134796  0.96232369     0.14600
H244        H  0.75017238  0.88846010  0.02196116     0.00300
H245        H  0.74133818  0.82002167  0.99547280     0.14900
H246        H  0.71496197  0.87047954  0.95927673     0.14700
C247        C  0.50714396  0.72957814  0.08646955     0.86500
C248        C  0.48450853  0.73525471  0.10067591    -0.53800
C249        C  0.48537660  0.75507154  0.11268179     0.09400
C250        C  0.50904412  0.76753717  0.10972100     0.20400
C251        C  0.51107003  0.75051280  0.07193680    -0.54500
C252        C  0.51158653  0.77035705  0.08378524     0.09500
C253        C  0.52798044  0.73026339  0.10388406    -0.54000
C254        C  0.52905917  0.75005993  0.11598338     0.10100
H255        H  0.46879936  0.72478599  0.10069510     0.14600
H256        H  0.50969556  0.78362285  0.11956997     0.00300
H257        H  0.51235890  0.74978914  0.05353091     0.14900
H258        H  0.54152636  0.71700713  0.10631012     0.14700
C259        C  0.36260141  0.96303319  0.75934156     0.86500
C260        C  0.37725171  0.96439803  0.78138819    -0.53800
C261        C  0.38770148  0.98464244  0.78542228     0.09400
C262        C  0.38381332  0.00158838  0.76577959     0.20400
C263        C  0.34550484  0.98386498  0.75950207    -0.54500
C264        C  0.35614524  0.00397747  0.76352830     0.09500
C265        C  0.38118406  0.96845274  0.74079467    -0.54000
C266        C  0.39212817  0.98863591  0.74387165     0.10100
H267        H  0.37792991  0.95082401  0.79366462     0.14600
H268        H  0.39261102  0.01796899  0.76854995     0.00300
H269        H  0.32657132  0.98261495  0.75551652     0.14900
H270        H  0.38546475  0.95794607  0.72610093     0.14700
C271        C  0.75153681  0.33061378  0.01841022     0.86500
C272        C  0.72918745  0.34655278  0.01837924    -0.53800
C273        C  0.72882702  0.36180814  0.00125119     0.09400
C274        C  0.75053449  0.35966870  0.98522474     0.20400
C275        C  0.75102194  0.31960943  0.99442420    -0.54500
C276        C  0.75075416  0.33490997  0.97712406     0.09500
C277        C  0.77332420  0.34590612  0.01765698    -0.54000
C278        C  0.77259990  0.36120646  0.00062124     0.10100
H279        H  0.71506127  0.34608238  0.03111528     0.14600
H280        H  0.75015741  0.37223077  0.97133610     0.00300
H281        H  0.75001225  0.30172542  0.99079087     0.14900
H282        H  0.78776508  0.34520458  0.03008555     0.14700
C283        C  0.24197242  0.64440707  0.01407066     0.86500
C284        C  0.26535204  0.63099078  0.00892180    -0.53800
C285        C  0.26429181  0.61722225  0.99038305     0.09400
C286        C  0.24017984  0.61823081  0.97796356     0.20400
C287        C  0.23690344  0.65718873  0.99157634    -0.54500
C288        C  0.23571166  0.64332035  0.97283129     0.09500
C289        C  0.22195139  0.62697696  0.01463891    -0.54000
C290        C  0.22130036  0.61319135  0.99590776     0.10100
H291        H  0.28168948  0.63258262  0.01885168     0.14600
H292        H  0.23951826  0.60693445  0.96278167     0.00300
H293        H  0.23473170  0.67527898  0.98982774     0.14900
H294        H  0.20831317  0.62673054  0.02784232     0.14700
C295        C  0.14670075  0.51242112  0.75182847     0.86500
C296        C  0.12977422  0.50919580  0.77209444    -0.53800
C297        C  0.11568541  0.49063949  0.77068831     0.09400
C298        C  0.11989668  0.47669026  0.74840783     0.20400
C299        C  0.16102308  0.48953945  0.75031376    -0.54500
C300        C  0.14717505  0.47090090  0.74849794     0.09500
C301        C  0.13062543  0.51204261  0.73072432    -0.54000
C302        C  0.11686269  0.49349140  0.72853963     0.10100
H303        H  0.12932146  0.52060268  0.78669176     0.14600
H304        H  0.10836467  0.46177891  0.74678945     0.00300
H305        H  0.18034703  0.48734867  0.75092590     0.14900
H306        H  0.13120071  0.52489451  0.71770915     0.14700
C307        C  0.73918362  0.16092445  0.46649215     0.86500
C308        C  0.71699796  0.14630124  0.46956967    -0.53800
C309        C  0.71881751  0.13114789  0.48693899     0.09400
C310        C  0.74298907  0.13173216  0.49960568     0.20400
C311        C  0.74355207  0.17160113  0.49014313    -0.54500
C312        C  0.74478660  0.15638243  0.50744424     0.09500
C313        C  0.76065910  0.14373233  0.46409404    -0.54000
C314        C  0.76267956  0.12862841  0.48139253     0.10100
H315        H  0.70065826  0.14872906  0.45968263     0.14600
H316        H  0.74455388  0.11938462  0.51364520     0.00300
H317        H  0.74544305  0.18960727  0.49291663     0.14900
H318        H  0.77462742  0.14446894  0.45130826     0.14700
C319        C  0.00447999  0.72975694  0.39663293     0.86500
C320        C  0.02634421  0.72964418  0.38088760    -0.53800
C321        C  0.02914877  0.74885516  0.36887527     0.09400
C322        C  0.00862970  0.76668920  0.37289565     0.20400
C323        C  0.00590920  0.75159357  0.41107983    -0.54500
C324        C  0.00865818  0.77091800  0.39883831     0.09500
C325        C  0.98301808  0.73495499  0.38057184    -0.54000
C326        C  0.98502615  0.75425724  0.36826087     0.10100
H327        H  0.03935510  0.71556941  0.38001102     0.14600
H328        H  0.01002960  0.78210542  0.36260683     0.00300
H329        H  0.00416878  0.75187597  0.42942440     0.14900
H330        H  0.96681590  0.72536972  0.37943186     0.14700
Zr331      Zr  0.28485877  0.74471049  0.21343014     2.17500
O332        O  0.32459417  0.72618998  0.21020873    -0.51300
O333        O  0.27417081  0.72947929  0.17621981    -0.74500
O334        O  0.28563704  0.70494525  0.22431191    -0.81300
O335        O  0.31401316  0.80031580  0.19599959    -0.83100
O336        O  0.25478864  0.69854461  0.24821062    -0.78700
O337        O  0.31838524  0.76207771  0.19518902    -0.90300
O338        O  0.23729111  0.74390708  0.16720621    -0.76300
O339        O  0.24322965  0.73704673  0.21550608    -0.85800
O340        O  0.26487979  0.77554620  0.19474551    -0.85500
O341        O  0.27653597  0.74275515  0.25340043    -0.72200
O342        O  0.29572908  0.77852413  0.23359635    -0.84400
Zr343      Zr  0.22377466  0.79990801  0.25665517     2.26400
Zr344      Zr  0.23434444  0.73555136  0.25531715     2.06300
Zr345      Zr  0.27515488  0.80935414  0.21493052     2.10000
Zr346      Zr  0.22316062  0.76816982  0.19759835     1.78800
O347        O  0.30451992  0.83782963  0.22375875    -0.93200
O348        O  0.19174899  0.74054703  0.19417675    -0.41000
O349        O  0.23293559  0.80246766  0.21695672    -0.77600
O350        O  0.21286392  0.76609303  0.23685493    -0.96300
O351        O  0.24415334  0.76941158  0.27517939    -0.89600
O352        O  0.26555188  0.80778019  0.25458611    -0.92400
C353        C  0.25599836  0.73150520  0.16288439     1.01300
C354        C  0.32576463  0.78184906  0.19069337     1.14200
C355        C  0.27342483  0.69168012  0.23670852     1.05000
O356        O  0.20319914  0.70938717  0.24477813    -0.94600
O357        O  0.19878592  0.74470931  0.27881195    -0.90300
O358        O  0.19343505  0.78293299  0.28021614    -0.83500
C359        C  0.18751850  0.76291108  0.28568386     1.11700
O360        O  0.32659212  0.76147719  0.27553952    -0.96600
Zr361      Zr  0.28562846  0.77713564  0.27306382     1.88900
O362        O  0.23134973  0.81349293  0.29480370    -0.73200
O363        O  0.24214602  0.71954822  0.29262160    -0.52500
O364        O  0.29165604  0.75265033  0.30569725    -0.97200
O365        O  0.31298500  0.80749479  0.28166193    -0.54400
O366        O  0.26624560  0.79560692  0.30550393    -0.73700
C367        C  0.24731850  0.80792165  0.30954354     0.98600
O368        O  0.18398562  0.81748065  0.25073640    -0.62600
O369        O  0.26817216  0.82336856  0.17667473    -0.57400
O370        O  0.22529839  0.84006777  0.24941044    -0.94000
O371        O  0.25426445  0.84622308  0.22307103    -0.92500
O372        O  0.21962309  0.78819948  0.16179285    -0.92800
O373        O  0.18420195  0.78738631  0.19259832    -0.91600
C374        C  0.23698128  0.85314433  0.23640248     1.17400
H375        H  0.26988726  0.77634362  0.17904308     0.33400
H376        H  0.19573625  0.76410724  0.23799143     0.44200
H377        H  0.26887779  0.82195654  0.26218007     0.37800
H378        H  0.28579897  0.73071560  0.26018977     0.34300
H379        H  0.18704283  0.74091636  0.17796058     0.26000
H380        H  0.23354869  0.70515501  0.29255953     0.32000
H381        H  0.27533512  0.75054189  0.31189016     0.37900
H382        H  0.22393047  0.80390079  0.16552745     0.32300
H383        H  0.25391853  0.83371796  0.17807481     0.31200
H384        H  0.30359282  0.84838587  0.21083460     0.32900
H385        H  0.30356787  0.81848733  0.29115617     0.31900
H386        H  0.18649057  0.80296525  0.19829991     0.35900
H387        H  0.18490542  0.82484529  0.23575294     0.28600
H388        H  0.32263533  0.71312743  0.19977627     0.32800
H389        H  0.33303736  0.76714904  0.29013448     0.35700
H390        H  0.28172265  0.83341490  0.17378056     0.28300
H391        H  0.17311406  0.80478853  0.24804244     0.41200
H392        H  0.20438365  0.69734510  0.25629699     0.31200
H393        H  0.20019664  0.72570503  0.19594586     0.38800
H394        H  0.31518748  0.81524882  0.26702837     0.30700
H395        H  0.25940814  0.71493160  0.29238512     0.30800
H396        H  0.32811883  0.71955787  0.22525755     0.31000
C397        C  0.24324386  0.85759232  0.47424086     0.86500
C398        C  0.26423806  0.87373520  0.47534542    -0.53800
C399        C  0.26868729  0.88269010  0.49624225     0.09400
C400        C  0.25043332  0.87569619  0.51452037     0.20400
C401        C  0.24798914  0.84026199  0.49313891    -0.54500
C402        C  0.25159826  0.84957861  0.51417587     0.09500
C403        C  0.22181257  0.87225332  0.48344110    -0.54000
C404        C  0.22534640  0.88170334  0.50448268     0.10100
H405        H  0.27527496  0.87743349  0.46067852     0.14600
H406        H  0.25370574  0.88322407  0.53154881     0.00300
H407        H  0.24745952  0.82213032  0.49036716     0.14900
H408        H  0.20506534  0.87544823  0.47457535     0.14700
C409        C  0.88644455  0.50971734  0.26585682     0.86500
C410        C  0.86877334  0.49007227  0.26567617    -0.53800
C411        C  0.85301619  0.48998899  0.24805463     0.09400
C412        C  0.85569488  0.51007937  0.23184024     0.20400
C413        C  0.89826073  0.50868192  0.24202683    -0.54500
C414        C  0.88229687  0.50873630  0.22411577     0.09500
C415        C  0.86949384  0.53076404  0.26522520    -0.54000
C416        C  0.85393844  0.53138582  0.24726104     0.10100
H417        H  0.86786845  0.47708806  0.27839790     0.14600
H418        H  0.84257798  0.51020719  0.21762753     0.00300
H419        H  0.91761743  0.50876270  0.23962903     0.14900
H420        H  0.87033293  0.54458811  0.27745088     0.14700
Zr421      Zr  0.76589470  0.28728636  0.21978674     2.17500
O422        O  0.75748590  0.31395388  0.18945023    -0.51300
O423        O  0.80811503  0.28336086  0.21014902    -0.74500
O424        O  0.77691175  0.32528412  0.23185450    -0.81300
O425        O  0.74178033  0.24224294  0.17801017    -0.83100
O426        O  0.77356255  0.32732221  0.27036651    -0.78700
O427        O  0.76112538  0.27551867  0.18055364    -0.90300
O428        O  0.82345588  0.25377624  0.23012126    -0.76300
O429        O  0.78514647  0.27982583  0.25518564    -0.85800
O430        O  0.77396280  0.24754495  0.21993568    -0.85500
O431        O  0.73765411  0.30041517  0.24817475    -0.72200
O432        O  0.72790826  0.26972480  0.21524302    -0.84400
Zr433      Zr  0.72587623  0.23433490  0.27936598     2.26400
Zr434      Zr  0.75657040  0.29161811  0.28383750     2.06300
Zr435      Zr  0.73603460  0.22976219  0.21643403     2.10000
Zr436      Zr  0.79267618  0.24008098  0.25535643     1.78800
O437        O  0.70012639  0.22136047  0.19464788    -0.93200
O438        O  0.82527837  0.25091250  0.28047086    -0.41000
O439        O  0.75504226  0.22137757  0.25181520    -0.77600
O440        O  0.76436943  0.25149077  0.28420862    -0.96300
O441        O  0.71859312  0.27415628  0.27932237    -0.89600
O442        O  0.70707258  0.24233156  0.24411363    -0.92400
C443        C  0.82522765  0.26941333  0.21532200     1.01300
C444        C  0.75159900  0.25939911  0.16930010     1.14200
C445        C  0.77862487  0.33599189  0.25091514     1.05000
O446        O  0.79204286  0.29700023  0.30728099    -0.94600
O447        O  0.74716886  0.27854841  0.32264286    -0.90300
O448        O  0.72806112  0.24533536  0.31854011    -0.83500
C449        C  0.73678817  0.26110800  0.33072539     1.11700
O450        O  0.69233889  0.31181464  0.21605844    -0.96600
Zr451      Zr  0.70011823  0.28229223  0.24391824     1.88900
O452        O  0.68387825  0.24133495  0.29055722    -0.73200
O453        O  0.73244810  0.32182971  0.30185751    -0.52500
O454        O  0.68508510  0.31692701  0.26245351    -0.97200
O455        O  0.66664375  0.27184874  0.21961663    -0.54400
O456        O  0.66981701  0.27176991  0.27079392    -0.73700
C457        C  0.66771777  0.25663125  0.28597052     0.98600
O458        O  0.73565438  0.20309945  0.30499995    -0.62600
O459        O  0.76078291  0.20033414  0.19774046    -0.57400
O460        O  0.71201783  0.19768027  0.26622037    -0.94000
O461        O  0.72139030  0.19357575  0.22889284    -0.92500
O462        O  0.80886092  0.20605473  0.23647999    -0.92800
O463        O  0.80490429  0.21165331  0.28297240    -0.91600
C464        C  0.71316314  0.18603195  0.24763145     1.17400
H465        H  0.78431679  0.24300836  0.20742620     0.33400
H466        H  0.77122283  0.24717813  0.29860357     0.44200
H467        H  0.69228865  0.23436770  0.24252873     0.37800
H468        H  0.73457075  0.31650089  0.24695000     0.34300
H469        H  0.83987236  0.24336088  0.27389959     0.26000
H470        H  0.74299566  0.32794650  0.31383492     0.32000
H471        H  0.66746584  0.31709701  0.26000431     0.37900
H472        H  0.80840435  0.20945430  0.22005426     0.32300
H473        H  0.74971882  0.19286816  0.18705576     0.31200
H474        H  0.70554738  0.20971504  0.18340453     0.32900
H475        H  0.66037060  0.25790919  0.22624189     0.31900
H476        H  0.79088707  0.20182374  0.28422057     0.35900
H477        H  0.74363405  0.19124584  0.29539934     0.28600
H478        H  0.77284035  0.32150214  0.18669645     0.32800
H479        H  0.67478242  0.31509885  0.21659846     0.35700
H480        H  0.77200991  0.20837451  0.18783243     0.28300
H481        H  0.74887375  0.20833558  0.31481211     0.41200
H482        H  0.80486987  0.30083639  0.29643440     0.31200
H483        H  0.82739397  0.26716760  0.27758178     0.38800
H484        H  0.67431156  0.26678540  0.20516733     0.30700
H485        H  0.73117389  0.33393122  0.29040873     0.30800
H486        H  0.74643942  0.32561991  0.19618961     0.31000
C487        C  0.60593530  0.01318159  0.28833492     0.86500
C488        C  0.62209738  0.03403453  0.28776522    -0.53800
C489        C  0.63793320  0.03444278  0.26990631     0.09400
C490        C  0.63607518  0.01372929  0.25391571     0.20400
C491        C  0.59374061  0.01398418  0.26470775    -0.54500
C492        C  0.60945179  0.01394721  0.24670622     0.09500
C493        C  0.62359376  0.99288637  0.28719308    -0.54000
C494        C  0.63926869  0.99308624  0.26943489     0.10100
H495        H  0.62009956  0.04831427  0.29936889     0.14600
H496        H  0.64872509  0.01338630  0.23932552     0.00300
H497        H  0.57437406  0.01464951  0.26235530     0.14900
H498        H  0.62352233  0.97922442  0.29936489     0.14700
C499        C  0.49176822  0.22671345  0.91920156     0.86500
C500        C  0.51375699  0.22397674  0.90341830    -0.53800
C501        C  0.51540306  0.24010568  0.88712683     0.09400
C502        C  0.49411838  0.25754353  0.88771405     0.20400
C503        C  0.49201899  0.25083292  0.92852651    -0.54500
C504        C  0.49337661  0.26694306  0.91241629     0.09500
C505        C  0.47026959  0.22719154  0.90251174    -0.54000
C506        C  0.47172431  0.24288178  0.88568405     0.10100
H507        H  0.52691121  0.21012049  0.90492769     0.14600
H508        H  0.49512733  0.27067339  0.87446063     0.00300
H509        H  0.49133588  0.25488318  0.94658114     0.14900
H510        H  0.45499577  0.21641269  0.90328657     0.14700
Zr511      Zr  0.21521022  0.26088600  0.73230211     2.17500
O512        O  0.17387150  0.27580708  0.73496263    -0.51300
O513        O  0.22259791  0.27743054  0.69552642    -0.74500
O514        O  0.21277485  0.30069186  0.74278182    -0.81300
O515        O  0.19092115  0.20347484  0.71399854    -0.83100
O516        O  0.24380348  0.30899914  0.76631436    -0.78700
O517        O  0.18373781  0.24158095  0.71270593    -0.90300
O518        O  0.26068131  0.26711888  0.68514334    -0.76300
O519        O  0.25613398  0.27119119  0.73276359    -0.85800
O520        O  0.23637253  0.23121963  0.71220959    -0.85500
O521        O  0.22527242  0.26402661  0.77176639    -0.72200
O522        O  0.20755598  0.22663074  0.75208343    -0.84400
Zr523      Zr  0.28149854  0.21094872  0.77276330     2.26400
Zr524      Zr  0.26687087  0.27372345  0.77209190     2.06300
Zr525      Zr  0.23002043  0.19707550  0.73261885     2.10000
Zr526      Zr  0.27729417  0.24139864  0.71311593     1.78800
O527        O  0.20210093  0.16789496  0.74264635    -0.93200
O528        O  0.30815396  0.26893720  0.70662849    -0.41000
O529        O  0.27151075  0.20691243  0.73322898    -0.77600
O530        O  0.28914979  0.24455622  0.75198805    -0.96300
O531        O  0.25963100  0.24001224  0.79271029    -0.89600
O532        O  0.24062588  0.20024980  0.77182771    -0.92400
C533        C  0.24055794  0.27770882  0.68187865     1.01300
C534        C  0.17810981  0.22112436  0.70859790     1.14200
C535        C  0.22476029  0.31446590  0.75498471     1.05000
O536        O  0.29477315  0.30163391  0.75885286    -0.94600
O537        O  0.30497660  0.26755363  0.79231517    -0.90300
O538        O  0.31414573  0.22979652  0.79132903    -0.83500
C539        C  0.31874269  0.25026476  0.79663900     1.11700
O540        O  0.17779373  0.24522770  0.79541368    -0.96600
Zr541      Zr  0.21862087  0.22950754  0.79113669     1.88900
O542        O  0.27537210  0.19823252  0.81139977    -0.73200
O543        O  0.26120128  0.29140727  0.80934547    -0.52500
O544        O  0.21405824  0.25313374  0.82510089    -0.97200
O545        O  0.19063902  0.19912780  0.79697770    -0.54400
O546        O  0.23670338  0.20734836  0.82118682    -0.73700
C547        C  0.25752919  0.19844185  0.82523918     0.98600
O548        O  0.32218883  0.19475468  0.76871012    -0.62600
O549        O  0.23884550  0.18136596  0.69499727    -0.57400
O550        O  0.28186724  0.17078723  0.76634534    -0.94000
O551        O  0.25202469  0.16153218  0.74199440    -0.92500
O552        O  0.27712674  0.22009178  0.67747338    -0.92800
O553        O  0.31671520  0.22362866  0.70608914    -0.91600
C554        C  0.26997063  0.15636124  0.75505663     1.17400
H555        H  0.23068293  0.22992406  0.69675851     0.33400
H556        H  0.30611443  0.24759089  0.75207027     0.44200
H557        H  0.23856719  0.18608065  0.77938818     0.37800
H558        H  0.21551390  0.27576773  0.77908918     0.34300
H559        H  0.30835242  0.27106140  0.68996499     0.26000
H560        H  0.26464000  0.27915548  0.82029405     0.32000
H561        H  0.22998793  0.25227705  0.83259138     0.37900
H562        H  0.28691603  0.22897900  0.66695159     0.32300
H563        H  0.25617934  0.17703050  0.69548196     0.31200
H564        H  0.20124256  0.15812947  0.72892233     0.32900
H565        H  0.20078771  0.18544389  0.79991355     0.31900
H566        H  0.31760283  0.21064755  0.71654729     0.35900
H567        H  0.32378297  0.18304310  0.78054448     0.28600
H568        H  0.17286210  0.28872561  0.72442226     0.32800
H569        H  0.17134556  0.23841212  0.80935221     0.35700
H570        H  0.23054367  0.16681280  0.69456419     0.28300
H571        H  0.32237659  0.18630284  0.75409370     0.41200
H572        H  0.30951586  0.29280141  0.75453380     0.31200
H573        H  0.30117530  0.28332548  0.71278309     0.38800
H574        H  0.18356257  0.19636489  0.78180214     0.30700
H575        H  0.27488371  0.30161516  0.81100703     0.30800
H576        H  0.17226396  0.28260721  0.75036243     0.31000
C577        C  0.99572071  0.27514647  0.60834827     0.86500
C578        C  0.01892371  0.27054565  0.62182680    -0.53800
C579        C  0.01907839  0.25120411  0.63427470     0.09400
C580        C  0.99587804  0.23781469  0.63192061     0.20400
C581        C  0.99208734  0.25354891  0.59394365    -0.54500
C582        C  0.99275615  0.23397216  0.60618474     0.09500
C583        C  0.97531581  0.27399035  0.62608566    -0.54000
C584        C  0.97536644  0.25464233  0.63831004     0.10100
H585        H  0.03415341  0.28159474  0.62130039     0.14600
H586        H  0.99594632  0.22205531  0.64199421     0.00300
H587        H  0.98853417  0.25391331  0.57583550     0.14900
H588        H  0.95991046  0.28560286  0.62706111     0.14700
C589        C  0.99288512  0.23288160  0.08418423     0.86500
C590        C  0.97108845  0.23479573  0.10030626    -0.53800
C591        C  0.97109501  0.25300599  0.11484090     0.09400
C592        C  0.99276021  0.26816690  0.11153640     0.20400
C593        C  0.99251341  0.25589239  0.07200814    -0.54500
C594        C  0.99239346  0.27403172  0.08633584     0.09500
C595        C  0.01517779  0.23405131  0.09963349    -0.54000
C596        C  0.01491542  0.25229742  0.11403859     0.10100
H597        H  0.95676003  0.22272636  0.10012002     0.14600
H598        H  0.99278497  0.28330618  0.12286918     0.00300
H599        H  0.99323108  0.25859133  0.05391653     0.14900
H600        H  0.02990751  0.22156853  0.09918457     0.14700
Zr601      Zr  0.02162565  0.03022413  0.03243953     2.17500
O602        O  0.01667584  0.05708499  0.06398333    -0.51300
O603        O  0.06194187  0.04221460  0.02460613    -0.74500
O604        O  0.04048982  0.01690141  0.06739589    -0.81300
O605        O  0.98856351  0.07179119  0.99210265    -0.83100
O606        O  0.03884992  0.97856966  0.06892825    -0.78700
O607        O  0.01090499  0.06948778  0.02445056    -0.90300
O608        O  0.07687417  0.02157615  0.99485180    -0.76300
O609        O  0.04243515  0.99591968  0.02182288    -0.85800
O610        O  0.02455488  0.03125498  0.99208171    -0.85500
O611        O  0.99773706  0.00027705  0.04650228    -0.72200
O612        O  0.98113976  0.03333947  0.01855412    -0.84400
Zr613      Zr  0.98065084  0.96997761  0.98044655     2.26400
Zr614      Zr  0.01796389  0.96565405  0.03447488     2.06300
Zr615      Zr  0.98417251  0.03342087  0.97785168     2.10000
Zr616      Zr  0.04529289  0.99704759  0.98159390     1.78800
O617        O  0.94612342  0.05441593  0.97365333    -0.93200
O618        O  0.07794817  0.96978848  0.98912858    -0.41000
O619        O  0.00514515  0.99937154  0.96633318    -0.77600
O620        O  0.02134981  0.96654762  0.99388354    -0.96300
O621        O  0.97758030  0.96854927  0.02070990    -0.89600
O622        O  0.96006750  0.00399079  0.99159635    -0.92400
C623        C  0.07867449  0.03680758  0.01040042     1.01300
C624        C  0.99885407  0.08063711  0.00943160     1.14200
C625        C  0.04483918  0.99790493  0.07715236     1.05000
O626        O  0.05484816  0.94266631  0.03768288    -0.94600
O627        O  0.01029735  0.92701438  0.01987373    -0.90300
O628        O  0.98670850  0.93064229  0.98853640    -0.83500
C629        C  0.99861309  0.91871028  0.00288310     1.11700
O630        O  0.95185411  0.02748101  0.06524034    -0.96600
Zr631      Zr  0.95770767  0.00305197  0.03193482     1.88900
O632        O  0.93987359  0.95859104  0.98864298    -0.73200
O633        O  0.99822746  0.94716027  0.06584370    -0.52500
O634        O  0.94758314  0.98060525  0.06490213    -0.97200
O635        O  0.92273804  0.02844880  0.02724143    -0.54400
O636        O  0.92582512  0.97946471  0.01878245    -0.73700
C637        C  0.92344596  0.96457212  0.00306071     0.98600
O638        O  0.99025364  0.94724660  0.94650106    -0.62600
O639        O  0.00406307  0.05330318  0.94745606    -0.57400
O640        O  0.95983143  0.98172086  0.94646076    -0.94000
O641        O  0.96336504  0.01977005  0.94361981    -0.92500
O642        O  0.05893187  0.01849288  0.94920987    -0.92800
O643        O  0.05479804  0.97360887  0.94830936    -0.91600
C644        C  0.95631599  0.00048260  0.93618708     1.17400
H645        H  0.03323209  0.04414785  0.98719469     0.33400
H646        H  0.02881577  0.95265832  0.98827894     0.44200
H647        H  0.94420599  0.00503587  0.98492321     0.37800
H648        H  0.99681047  0.00106792  0.06288710     0.34300
H649        H  0.09256139  0.97690524  0.98329410     0.26000
H650        H  0.01118284  0.93799969  0.07315674     0.32000
H651        H  0.93926411  0.96729316  0.05881648     0.37900
H652        H  0.04459411  0.02021335  0.93935059     0.32300
H653        H  0.00374952  0.04285679  0.93421821     0.31200
H654        H  0.94791094  0.06303055  0.95946002     0.32900
H655        H  0.91760426  0.02627458  0.01128746     0.31900
H656        H  0.04028327  0.97486895  0.93862141     0.35900
H657        H  0.99682946  0.95799953  0.93550571     0.28600
H658        H  0.03298197  0.05919205  0.07028090     0.32800
H659        H  0.93577314  0.02400152  0.07127004     0.35700
H660        H  0.99266103  0.06580493  0.94346543     0.28300
H661        H  0.00442837  0.93759309  0.95054706     0.41200
H662        H  0.05087491  0.93064378  0.04850509     0.31200
H663        H  0.07990000  0.97003891  0.00584359     0.38800
H664        H  0.92929298  0.04381438  0.02761961     0.30700
H665        H  0.99439775  0.95944175  0.07694219     0.30800
H666        H  0.00787835  0.04897441  0.07586540     0.31000
Zr667      Zr  0.21391598  0.24688546  0.22507427     2.17500
O668        O  0.21479482  0.21620080  0.19695493    -0.51300
O669        O  0.17264716  0.25476698  0.21386442    -0.74500
O670        O  0.20157618  0.21039919  0.23962235    -0.81300
O671        O  0.24336053  0.28479008  0.18060755    -0.83100
O672        O  0.20359436  0.21118020  0.27810537    -0.78700
O673        O  0.22570169  0.25103470  0.18601182    -0.90300
O674        O  0.15895489  0.28798790  0.22935076    -0.76300
O675        O  0.19406764  0.25856969  0.25914215    -0.85800
O676        O  0.20802013  0.28687125  0.22198860    -0.85500
O677        O  0.24112959  0.23499933  0.25446643    -0.72200
O678        O  0.25289194  0.26250978  0.22016889    -0.84400
Zr679      Zr  0.25512751  0.30270985  0.28189852     2.26400
Zr680      Zr  0.22127635  0.24754801  0.28882586     2.06300
Zr681      Zr  0.24679369  0.30274281  0.21812494     2.10000
Zr682      Zr  0.18913021  0.29866166  0.25663501     1.78800
O683        O  0.28029643  0.31112070  0.19325272    -0.93200
O684        O  0.15360110  0.28953125  0.27857682    -0.41000
O685        O  0.22787889  0.31495535  0.25278316    -0.77600
O686        O  0.21573698  0.28785736  0.28684706    -0.96300
O687        O  0.26041790  0.26280831  0.28431837    -0.89600
O688        O  0.27423668  0.29135997  0.24734812    -0.92400
C689        C  0.15698751  0.27098825  0.21590590     1.01300
C690        C  0.23554412  0.26571947  0.17352351     1.14200
C691        C  0.19887373  0.20119678  0.25909619     1.05000
O692        O  0.18339296  0.24803396  0.30964320    -0.94600
O693        O  0.23120177  0.26211676  0.32688131    -0.90300
O694        O  0.25314649  0.29332695  0.32137573    -0.83500
C695        C  0.24332501  0.27892283  0.33422074     1.11700
O696        O  0.28791966  0.22074223  0.22277370    -0.96600
Zr697      Zr  0.27964811  0.25144367  0.24988124     1.88900
O698        O  0.29701720  0.29673086  0.29300795    -0.73200
O699        O  0.24098016  0.21720215  0.31011010    -0.52500
O700        O  0.29335386  0.21816469  0.27073184    -0.97200
O701        O  0.31410979  0.25904708  0.22576500    -0.54400
O702        O  0.31045487  0.26427329  0.27547605    -0.73700
C703        C  0.31303975  0.28108962  0.28903234     0.98600
O704        O  0.24355452  0.33498667  0.30611647    -0.62600
O705        O  0.21991007  0.33039545  0.20007340    -0.57400
O706        O  0.27128275  0.33774510  0.26795972    -0.94000
O707        O  0.26525862  0.33838531  0.22987848    -0.92500
O708        O  0.17923773  0.33416788  0.23778989    -0.92800
O709        O  0.17654454  0.32776875  0.28412810    -0.91600
C710        C  0.27261847  0.34743942  0.24859966     1.17400
H711        H  0.19862564  0.29091058  0.20875438     0.33400
H712        H  0.20884160  0.29354912  0.30091118     0.44200
H713        H  0.28945921  0.29859185  0.24558265     0.37800
H714        H  0.24358971  0.21876138  0.25430074     0.34300
H715        H  0.14034183  0.29881821  0.27190135     0.26000
H716        H  0.22773290  0.20939290  0.31768923     0.32000
H717        H  0.28846455  0.22135462  0.28665231     0.37900
H718        H  0.16161033  0.33628528  0.23962208     0.32300
H719        H  0.22043405  0.34398749  0.21000047     0.31200
H720        H  0.27434430  0.32396577  0.18396868     0.32900
H721        H  0.32163495  0.27246641  0.23257062     0.31900
H722        H  0.19023235  0.33805051  0.28496666     0.35900
H723        H  0.23436576  0.34517522  0.29587047     0.28600
H724        H  0.19859021  0.20970855  0.19704239     0.32800
H725        H  0.30391821  0.21430435  0.22699321     0.35700
H726        H  0.22842349  0.33466515  0.18606164     0.28300
H727        H  0.23107608  0.32959931  0.31659292     0.41200
H728        H  0.18724774  0.24042667  0.32413677     0.31200
H729        H  0.15000921  0.27382745  0.27406908     0.38800
H730        H  0.30694307  0.26458895  0.21139820     0.30700
H731        H  0.24706395  0.20631240  0.29840292     0.30800
H732        H  0.22575707  0.20427539  0.20311429     0.31000
C733        C  0.10856117  0.01628937  0.27971597     0.86500
C734        C  0.12184966  0.03880751  0.27832255    -0.53800
C735        C  0.13589302  0.04119379  0.25951352     0.09400
C736        C  0.13553168  0.02031208  0.24333505     0.20400
C737        C  0.09450508  0.01582292  0.25699727    -0.54500
C738        C  0.10858444  0.01752379  0.23790078     0.09500
C739        C  0.12834496  0.99776147  0.27693117    -0.54000
C740        C  0.14221642  0.99943958  0.25789167     0.10100
H741        H  0.11929964  0.05271852  0.29029838     0.14600
H742        H  0.14706410  0.02188398  0.22805556     0.00300
H743        H  0.07522099  0.01367228  0.25605486     0.14900
H744        H  0.13023175  0.98358748  0.28842562     0.14700
Zr745      Zr  0.96080067  0.02277074  0.53460804     2.17500
O746        O  0.92085446  0.03091693  0.55054986    -0.51300
O747        O  0.96907270  0.06066562  0.54894735    -0.74500
O748        O  0.95599636  0.01034471  0.57399823    -0.81300
O749        O  0.93657756  0.03842451  0.47487215    -0.83100
O750        O  0.98751271  0.98715789  0.58388621    -0.78700
O751        O  0.92709765  0.03730707  0.51241081    -0.90300
O752        O  0.00789707  0.06845434  0.54107746    -0.76300
O753        O  0.00174964  0.02065618  0.54635022    -0.85800
O754        O  0.98258063  0.04077565  0.50518929    -0.85500
O755        O  0.97019324  0.98299313  0.53811731    -0.72200
O756        O  0.95352960  0.00201224  0.50000895    -0.84400
Zr757      Zr  0.02713431  0.97762419  0.48607070     2.26400
Zr758      Zr  0.01178027  0.98100078  0.54928330     2.06300
Zr759      Zr  0.97626468  0.01946811  0.47073849     2.10000
Zr760      Zr  0.02348663  0.03817668  0.51675797     1.78800
O761        O  0.95035667  0.00597168  0.44049368    -0.93200
O762        O  0.05383790  0.04567748  0.54552456    -0.41000
O763        O  0.01765439  0.01730684  0.48209488    -0.77600
O764        O  0.03437640  0.99906321  0.52023919    -0.96300
O765        O  0.00496683  0.95968076  0.51507894    -0.89600
O766        O  0.98622262  0.98000654  0.47399636    -0.92400
C767        C  0.98732835  0.07340856  0.54989219     1.01300
C768        C  0.92217559  0.04231489  0.49172795     1.14200
C769        C  0.96764258  0.99807278  0.58845067     1.05000
O770        O  0.03790934  0.99230586  0.58027441    -0.94600
O771        O  0.05142118  0.96179429  0.54503192    -0.90300
O772        O  0.05897737  0.95823179  0.50709422    -0.83500
C773        C  0.06469654  0.95542189  0.52802162     1.11700
O774        O  0.92256815  0.96052924  0.51630660    -0.96600
Zr775      Zr  0.96402545  0.96271806  0.50333616     1.88900
O776        O  0.01906336  0.93994097  0.47118524    -0.73200
O777        O  0.00608212  0.94355334  0.56477459    -0.52500
O778        O  0.96062866  0.93125231  0.52931101    -0.97200
O779        O  0.93366545  0.95467865  0.47476401    -0.54400
O780        O  0.98084119  0.93144638  0.48090409    -0.73700
C781        C  0.00104916  0.92685113  0.47112783     0.98600
O782        O  0.06913510  0.97624053  0.47389843    -0.62600
O783        O  0.98070329  0.05589830  0.45256471    -0.57400
O784        O  0.03106345  0.98717264  0.44601327    -0.94000
O785        O  0.00142414  0.01255843  0.43669489    -0.92500
O786        O  0.02406795  0.07097741  0.49218623    -0.92800
O787        O  0.06358345  0.04264719  0.50106094    -0.91600
C788        C  0.02012464  0.00002221  0.43164157     1.17400
H789        H  0.97714953  0.05632364  0.50345606     0.33400
H790        H  0.05131728  0.99855183  0.52376236     0.44200
H791        H  0.98411797  0.97237708  0.45955889     0.37800
H792        H  0.96020381  0.97612157  0.54933986     0.34300
H793        H  0.04512719  0.04532143  0.56018610     0.26000
H794        H  0.01708046  0.93332828  0.55593889     0.32000
H795        H  0.97504304  0.92145370  0.52627294     0.37900
H796        H  0.02825229  0.08371493  0.50232755     0.32300
H797        H  0.97194946  0.06697709  0.46248904     0.31200
H798        H  0.94885777  0.01880418  0.42988600     0.32900
H799        H  0.93270850  0.93799841  0.47441615     0.31900
H800        H  0.06467915  0.03168206  0.48824404     0.35900
H801        H  0.07040331  0.96412748  0.46219933     0.28600
H802        H  0.92339469  0.04033220  0.56430676     0.32800
H803        H  0.91998302  0.97398898  0.52625717     0.35700
H804        H  0.99787764  0.05934977  0.45458385     0.28300
H805        H  0.07170300  0.99046904  0.46568916     0.41200
H806        H  0.04105011  0.00838305  0.57741557     0.31200
H807        H  0.06453177  0.03200009  0.54565698     0.38800
H808        H  0.94112052  0.95847721  0.46007981     0.30700
H809        H  0.01333526  0.94419677  0.58011809     0.30800
H810        H  0.91499671  0.01637806  0.55619600     0.31000
C811        C  0.23853428  0.17225693  0.03098824     0.86500
C812        C  0.26070694  0.15621547  0.03355364    -0.53800
C813        C  0.26303913  0.14008779  0.01685511     0.09400
C814        C  0.24256982  0.14078545  0.99938019     0.20400
C815        C  0.24013680  0.18137208  0.00667004    -0.54500
C816        C  0.24251260  0.16502893  0.99016422     0.09500
C817        C  0.21726562  0.15595227  0.02988673    -0.54000
C818        C  0.21939748  0.13966668  0.01341810     0.10100
H819        H  0.27375567  0.15784327  0.04714631     0.14600
H820        H  0.24432132  0.12738544  0.98605755     0.00300
H821        H  0.24097574  0.19925944  0.00318143     0.14900
H822        H  0.20177250  0.15618052  0.04095498     0.14700
Zr823      Zr  0.47135523  0.03574049  0.99080864     2.17500
O824        O  0.46599640  0.06463901  0.96182030    -0.51300
O825        O  0.43010009  0.04725327  0.00062961    -0.74500
O826        O  0.45533385  0.02054877  0.95523406    -0.81300
O827        O  0.50414703  0.07947004  0.02806244    -0.83100
O828        O  0.46102797  0.98247744  0.95466651    -0.78700
O829        O  0.48494438  0.07386840  0.99438028    -0.90300
O830        O  0.41824764  0.02711823  0.03085396    -0.76300
O831        O  0.45433781  0.00158807  0.00278669    -0.85800
O832        O  0.46953678  0.03881571  0.03123951    -0.85500
O833        O  0.49892794  0.00672632  0.97669195    -0.72200
O834        O  0.51184795  0.04012776  0.00400530    -0.84400
Zr835      Zr  0.51990912  0.97879896  0.04349000     2.26400
Zr836      Zr  0.48203409  0.97233455  0.98975906     2.06300
Zr837      Zr  0.51006363  0.04231294  0.04461175     2.10000
Zr838      Zr  0.45284034  0.00445292  0.04317099     1.78800
O839        O  0.54719736  0.06293754  0.04741033    -0.93200
O840        O  0.42143941  0.97695936  0.03883154    -0.41000
O841        O  0.49297394  0.00819780  0.05732119    -0.77600
O842        O  0.47935835  0.97417210  0.03043862    -0.96300
O843        O  0.52222704  0.97637922  0.00313506    -0.89600
O844        O  0.53711201  0.01292421  0.03160318    -0.92400
C845        C  0.41437237  0.04193535  0.01547739     1.01300
C846        C  0.49548281  0.08627166  0.00903789     1.14200
C847        C  0.45328010  0.00105317  0.94575128     1.05000
O848        O  0.44583034  0.95021949  0.98949749    -0.94600
O849        O  0.49468594  0.93476197  0.00303199    -0.90300
O850        O  0.51743391  0.93908350  0.03472999    -0.83500
C851        C  0.50712418  0.92683637  0.01974933     1.11700
O852        O  0.54665879  0.03876279  0.96239583    -0.96600
Zr853      Zr  0.53895560  0.01066392  0.99127714     1.88900
O854        O  0.56124724  0.96702262  0.03495670    -0.73200
O855        O  0.50080747  0.95131658  0.95825489    -0.52500
O856        O  0.54880772  0.99224815  0.95505165    -0.97200
O857        O  0.57413178  0.03305045  0.99947505    -0.54400
O858        O  0.57005505  0.98289992  0.00103447    -0.73700
C859        C  0.57482469  0.96961399  0.01759762     0.98600
O860        O  0.51292877  0.95602566  0.07709352    -0.62600
O861        O  0.48962035  0.06396469  0.07470740    -0.57400
O862        O  0.53932713  0.99327985  0.07735850    -0.94000
O863        O  0.53072748  0.03099929  0.07966192    -0.92500
O864        O  0.43976974  0.02847477  0.07499066    -0.92800
O865        O  0.44823619  0.98327582  0.07807635    -0.91600
C866        C  0.54019770  0.01254161  0.08749917     1.17400
H867        H  0.45978563  0.05179425  0.03609682     0.33400
H868        H  0.47326512  0.96014982  0.03605569     0.44200
H869        H  0.55290386  0.01456065  0.03815576     0.37800
H870        H  0.49978768  0.00692440  0.96029859     0.34300
H871        H  0.40730832  0.98390656  0.04677665     0.26000
H872        H  0.48733220  0.94439838  0.94999020     0.32000
H873        H  0.55455519  0.97679244  0.95895028     0.37900
H874        H  0.42403385  0.02262398  0.07962907     0.32300
H875        H  0.48661752  0.05279912  0.08670634     0.31200
H876        H  0.54436878  0.07391727  0.06000885     0.32900
H877        H  0.58296902  0.02504944  0.01172683     0.31900
H878        H  0.45766059  0.96901866  0.07553729     0.35900
H879        H  0.50668129  0.96681538  0.08881295     0.28600
H880        H  0.44839171  0.06653799  0.95973216     0.32800
H881        H  0.56271544  0.03464419  0.95603626     0.35700
H882        H  0.50214745  0.07367748  0.08116467     0.28300
H883        H  0.49883429  0.94687057  0.07333650     0.41200
H884        H  0.43298836  0.96060385  0.98374640     0.31200
H885        H  0.41708463  0.97748012  0.02253809     0.38800
H886        H  0.56754769  0.04704954  0.00680418     0.30700
H887        H  0.50665035  0.96301760  0.94789305     0.30800
H888        H  0.47218931  0.05801848  0.94736284     0.31000
Zr889      Zr  0.52080737  0.03651320  0.48894312     2.17500
O890        O  0.56068769  0.03534024  0.47151185    -0.51300
O891        O  0.50835051  0.07389336  0.47556399    -0.74500
O892        O  0.52040101  0.02656765  0.44857807    -0.81300
O893        O  0.55380381  0.05139195  0.54384048    -0.83100
O894        O  0.49204401  0.00017149  0.44291696    -0.78700
O895        O  0.55377795  0.05674792  0.50555464    -0.90300
O896        O  0.47249672  0.08347123  0.49212417    -0.76300
O897        O  0.47845583  0.03617402  0.48274013    -0.85800
O898        O  0.50334486  0.05416470  0.52191063    -0.85500
O899        O  0.51205993  0.99712807  0.48540694    -0.72200
O900        O  0.53432694  0.01453500  0.52084851    -0.84400
Zr901      Zr  0.46406229  0.99339533  0.54397548     2.26400
Zr902      Zr  0.46943959  0.99694183  0.47905393     2.06300
Zr903      Zr  0.51660583  0.03224834  0.55383799     2.10000
Zr904      Zr  0.46104008  0.05316772  0.51617703     1.78800
O905        O  0.54912099  0.01610920  0.57673178    -0.93200
O906        O  0.42511734  0.06103320  0.49356030    -0.41000
O907        O  0.47380536  0.03220325  0.54867690    -0.77600
O908        O  0.45056252  0.01464533  0.51173927    -0.96300
O909        O  0.48175159  0.97528452  0.51141559    -0.89600
O910        O  0.50630052  0.99342877  0.55039963    -0.92400
C911        C  0.49028052  0.08750617  0.47918886     1.01300
C912        C  0.56308475  0.05882732  0.52536999     1.14200
C913        C  0.50956410  0.01221554  0.43602320     1.05000
O914        O  0.43950745  0.01585289  0.45518123    -0.94600
O915        O  0.43416485  0.97462316  0.48884784    -0.90300
O916        O  0.43151387  0.97278591  0.52730539    -0.83500
C917        C  0.42399777  0.96805315  0.50728983     1.11700
O918        O  0.56228493  0.97053954  0.49811774    -0.96600
Zr919      Zr  0.52384000  0.97564197  0.51778034     1.88900
O920        O  0.47310645  0.95486793  0.55498794    -0.73200
O921        O  0.46633832  0.96229269  0.45663701    -0.52500
O922        O  0.52466717  0.94422297  0.49067630    -0.97200
O923        O  0.55613325  0.96710541  0.54461635    -0.54400
O924        O  0.50830921  0.94378053  0.53824050    -0.73700
C925        C  0.48978130  0.94006915  0.55055348     0.98600
O926        O  0.42572198  0.99972484  0.56377488    -0.62600
O927        O  0.51540415  0.06864967  0.57356269    -0.57400
O928        O  0.46822387  0.00003085  0.58453691    -0.94000
O929        O  0.49815057  0.02453026  0.59114425    -0.92500
O930        O  0.46249979  0.08577438  0.54173441    -0.92800
O931        O  0.42351860  0.05819159  0.53730840    -0.91600
C932        C  0.48078923  0.01224135  0.59794397     1.17400
H933        H  0.50839751  0.06956409  0.52353148     0.33400
H934        H  0.43326862  0.01422435  0.51041368     0.44200
H935        H  0.51054971  0.98528675  0.56402471     0.37800
H936        H  0.52099418  0.99025182  0.47292926     0.34300
H937        H  0.42533376  0.07740895  0.49036732     0.26000
H938        H  0.46027353  0.96723073  0.44161753     0.32000
H939        H  0.50753408  0.94122517  0.48769215     0.37900
H940        H  0.45771516  0.09892301  0.53233608     0.32300
H941        H  0.49819518  0.07158938  0.57717737     0.31200
H942        H  0.55114100  0.02710795  0.58932205     0.32900
H943        H  0.54800879  0.96297430  0.55888201     0.31900
H944        H  0.42759537  0.05377087  0.55304665     0.35900
H945        H  0.42760801  0.01350294  0.57322349     0.28600
H946        H  0.55961180  0.04535057  0.45816378     0.32800
H947        H  0.56892718  0.95564673  0.50294926     0.35700
H948        H  0.52313790  0.06567630  0.58842183     0.28300
H949        H  0.41419803  0.00469710  0.55189199     0.41200
H950        H  0.42797981  0.00400065  0.45128230     0.31200
H951        H  0.42846512  0.05360130  0.47870706     0.38800
H952        H  0.56325118  0.98189245  0.54799384     0.30700
H953        H  0.48316259  0.95705749  0.45379873     0.30800
H954        H  0.56296219  0.01985158  0.46516428     0.31000
C955        C  0.48880776  0.23834921  0.40273536     0.86500
C956        C  0.51159391  0.23897386  0.38784135    -0.53800
C957        C  0.51241078  0.25692094  0.37369223     0.09400
C958        C  0.48991830  0.27261249  0.37508208     0.20400
C959        C  0.48707459  0.26148346  0.41472185    -0.54500
C960        C  0.48756350  0.27931012  0.40028989     0.09500
C961        C  0.46838747  0.23889850  0.38504702    -0.54000
C962        C  0.46876743  0.25695217  0.37071977     0.10100
H963        H  0.52580463  0.22601848  0.38753947     0.14600
H964        H  0.49035869  0.28741235  0.36371158     0.00300
H965        H  0.48516276  0.26357466  0.43299888     0.14900
H966        H  0.45432727  0.22659766  0.38442228     0.14700
Zr967      Zr  0.96550053  0.47694903  0.02201329     2.17500
O968        O  0.96164901  0.45354581  0.05568023    -0.51300
O969        O  0.92533171  0.46425042  0.01371982    -0.74500
O970        O  0.94771124  0.49636136  0.05478567    -0.81300
O971        O  0.00378985  0.42902774  0.99379561    -0.83100
O972        O  0.94895538  0.53431855  0.05055594    -0.78700
O973        O  0.98104997  0.43860566  0.02476463    -0.90300
O974        O  0.91285001  0.47840462  0.98006305    -0.76300
O975        O  0.94574798  0.50874198  0.00520856    -0.85800
O976        O  0.96411203  0.46786485  0.98240428    -0.85500
O977        O  0.99017875  0.50819391  0.03221445    -0.72200
O978        O  0.00643457  0.47082870  0.01009290    -0.84400
Zr979      Zr  0.00971851  0.52560985  0.96234523     2.26400
Zr980      Zr  0.97048061  0.54012334  0.01437816     2.06300
Zr981      Zr  0.00515494  0.46248837  0.97013333     2.10000
Zr982      Zr  0.94518002  0.50020852  0.96552457     1.78800
O983        O  0.04274623  0.44034883  0.96780048    -0.93200
O984        O  0.91092010  0.52684139  0.96676218    -0.41000
O985        O  0.98563245  0.49424214  0.95252559    -0.77600
O986        O  0.96875972  0.53239628  0.97413598    -0.96300
O987        O  0.01122586  0.53419109  0.00189895    -0.89600
O988        O  0.02963390  0.49386190  0.97900495    -0.92400
C989        C  0.90973985  0.46664155  0.99782289     1.01300
C990        C  0.99446705  0.42476429  0.01319884     1.14200
C991        C  0.94289266  0.51663544  0.06155869     1.05000
O992        O  0.93266273  0.56144020  0.00991419    -0.94600
O993        O  0.98272822  0.57554158  0.99672237    -0.90300
O994        O  0.00481235  0.56599230  0.96543360    -0.83500
C995        C  0.99498914  0.58063869  0.97898105     1.11700
O996        O  0.03767047  0.48606004  0.05598997    -0.96600
Zr997      Zr  0.03069258  0.50231579  0.01860804     1.88900
O998        O  0.05082434  0.53711306  0.96817723    -0.73200
O999        O  0.98470652  0.56684561  0.04276860    -0.52500
O1000       O  0.04339796  0.53080108  0.04585086    -0.97200
O1001       O  0.06314359  0.47366682  0.01788643    -0.54400
O1002       O  0.06315716  0.52306554  0.00221197    -0.73700
C1003       C  0.06637075  0.53433911  0.98406164     0.98600
O1004       O  0.00303966  0.54214936  0.92503205    -0.62600
O1005       O  0.98702077  0.43495879  0.94482593    -0.57400
O1006       O  0.02874683  0.50687927  0.93014118    -0.94000
O1007       O  0.02473999  0.46899826  0.93328070    -0.92500
O1008       O  0.93568987  0.47385336  0.93494747    -0.92800
O1009       O  0.93817086  0.51738647  0.92863298    -0.91600
C1010       C  0.03199564  0.48656973  0.92279668     1.17400
H1011       H  0.95533918  0.45432745  0.97960878     0.33400
H1012       H  0.96192864  0.54533716  0.96629211     0.44200
H1013       H  0.04559998  0.49151107  0.97280142     0.37800
H1014       H  0.99076404  0.51031391  0.04849782     0.34300
H1015       H  0.89840772  0.51967134  0.95741999     0.26000
H1016       H  0.97020606  0.57597103  0.04724819     0.32000
H1017       H  0.02981922  0.54198442  0.04655161     0.37900
H1018       H  0.93313721  0.45924303  0.94246087     0.32300
H1019       H  0.00062790  0.42471939  0.94019581     0.31200
H1020       H  0.05537428  0.45078423  0.97261982     0.32900
H1021       H  0.07172902  0.47591606  0.00338821     0.31900
H1022       H  0.95439941  0.51844804  0.92186341     0.35900
H1023       H  0.98768951  0.55099921  0.92635641     0.28600
H1024       H  0.94431727  0.45389990  0.05961539     0.32800
H1025       H  0.05454247  0.48938580  0.05984453     0.35700
H1026       H  0.97708765  0.42562033  0.95478635     0.28300
H1027       H  0.01555706  0.55355786  0.92337709     0.41200
H1028       H  0.93070536  0.56315458  0.99330673     0.31200
H1029       H  0.90477990  0.52610590  0.98252414     0.38800
H1030       H  0.05499111  0.45914861  0.01580934     0.30700
H1031       H  0.98865629  0.55764997  0.05627929     0.30800
H1032       H  0.96964102  0.46160669  0.06828389     0.31000
Zr1033     Zr  0.53268126  0.47578805  0.96129210     2.17500
O1034       O  0.54482092  0.44694671  0.93318189    -0.51300
O1035       O  0.57228679  0.46414179  0.97542097    -0.74500
O1036       O  0.55093886  0.49080630  0.92733240    -0.81300
O1037       O  0.49296716  0.43291150  0.99122822    -0.83100
O1038       O  0.54631402  0.52903384  0.92696924    -0.78700
O1039       O  0.51639777  0.43831744  0.96026359    -0.90300
O1040       O  0.58098500  0.48379147  0.00739252    -0.76300
O1041       O  0.54852642  0.50988840  0.97579944    -0.85800
O1042       O  0.53029729  0.47251036  0.00151670    -0.85500
O1043       O  0.50731332  0.50536093  0.94551387    -0.72200
O1044       O  0.49100026  0.47168612  0.97015366    -0.84400
Zr1045     Zr  0.47913711  0.53313476  0.01021260     2.26400
Zr1046     Zr  0.52289502  0.53965985  0.96097478     2.06300
Zr1047     Zr  0.48845685  0.46936135  0.01060312     2.10000
Zr1048     Zr  0.54562707  0.50683642  0.01603088     1.78800
O1049       O  0.44924689  0.45225192  0.01263425    -0.93200
O1050       O  0.57897357  0.53258401  0.01593587    -0.41000
O1051       O  0.50420211  0.50351955  0.02545626    -0.77600
O1052       O  0.52118570  0.53736793  0.00178007    -0.96300
O1053       O  0.48107231  0.53602589  0.96989341    -0.89600
O1054       O  0.46283663  0.49906644  0.99605348    -0.92400
C1055       C  0.58623850  0.46905510  0.99200496     1.01300
C1056       C  0.50337830  0.42599108  0.97282326     1.14200
C1057       C  0.55414617  0.51010909  0.91836288     1.05000
O1058       O  0.55898717  0.56149489  0.95678901    -0.94600
O1059       O  0.51616455  0.57754720  0.97750437    -0.90300
O1060       O  0.48859086  0.57231006  0.00511687    -0.83500
C1061       C  0.50227263  0.58492996  0.99362397     1.11700
O1062       O  0.46501315  0.47866046  0.92096276    -0.96600
Zr1063     Zr  0.46586687  0.50142768  0.95568449     1.88900
O1064       O  0.43797449  0.54193215  0.99827018    -0.73200
O1065       O  0.50123166  0.56046968  0.93155780    -0.52500
O1066       O  0.45526251  0.52251962  0.92164852    -0.97200
O1067       O  0.43500579  0.47311199  0.95757397    -0.54400
O1068       O  0.43028636  0.52402444  0.96502912    -0.73700
C1069       C  0.42409679  0.53714698  0.98160267     0.98600
O1070       O  0.46807601  0.55777354  0.04238953    -0.62600
O1071       O  0.50578574  0.44258799  0.03765611    -0.57400
O1072       O  0.46796918  0.51932201  0.04754585    -0.94000
O1073       O  0.47204248  0.48105296  0.04771126    -0.92500
O1074       O  0.55024697  0.48252866  0.04895524    -0.92800
O1075       O  0.54817994  0.52965821  0.05059377    -0.91600
C1076       C  0.46650300  0.50012570  0.05738055     1.17400
H1077       H  0.53930294  0.45944185  0.00690556     0.33400
H1078       H  0.52739610  0.55069422  0.00897943     0.44200
H1079       H  0.44644803  0.49742417  0.00116868     0.37800
H1080       H  0.50796289  0.50525163  0.92910656     0.34300
H1081       H  0.59082153  0.52597550  0.02672010     0.26000
H1082       H  0.51316087  0.57089156  0.92543211     0.32000
H1083       H  0.43811960  0.51933559  0.91888069     0.37900
H1084       H  0.56551664  0.48695753  0.05612611     0.32300
H1085       H  0.50815641  0.45144826  0.05179769     0.31200
H1086       H  0.45219668  0.43793601  0.02085600     0.32900
H1087       H  0.42343432  0.47731662  0.94544784     0.31900
H1088       H  0.53177908  0.53636088  0.05267470     0.35900
H1089       H  0.48288095  0.56559617  0.04684927     0.28600
H1090       H  0.56231865  0.44857123  0.93081922     0.32800
H1091       H  0.48059146  0.47009192  0.92081904     0.35700
H1092       H  0.49255709  0.43239244  0.04126421     0.28300
H1093       H  0.45710433  0.56972783  0.03631817     0.41200
H1094       H  0.57145850  0.55305476  0.96551810     0.31200
H1095       H  0.58658686  0.53035332  0.00083019     0.38800
H1096       H  0.42612070  0.47644400  0.97185996     0.30700
H1097       H  0.49893831  0.54925510  0.91920581     0.30800
H1098       H  0.53721413  0.45149515  0.91865774     0.31000
Zr1099     Zr  0.97534651  0.52893304  0.47519629     2.17500
O1100       O  0.94555008  0.55867352  0.46616623    -0.51300
O1101       O  0.96627899  0.52164234  0.43493168    -0.74500
O1102       O  0.99260310  0.56509497  0.46655295    -0.81300
O1103       O  0.92614491  0.49575550  0.50635711    -0.83100
O1104       O  0.03336851  0.56226909  0.46843119    -0.78700
O1105       O  0.93374399  0.52756671  0.48700435    -0.90300
O1106       O  0.98677520  0.49028857  0.42241496    -0.76300
O1107       O  0.01218558  0.51564266  0.45866849    -0.85800
O1108       O  0.97123829  0.48918369  0.47161216    -0.85500
O1109       O  0.00563817  0.53987033  0.50225778    -0.72200
O1110       O  0.96880064  0.51573307  0.51321356    -0.84400
Zr1111     Zr  0.03387440  0.47215647  0.51868576     2.26400
Zr1112     Zr  0.04271239  0.52577635  0.48559799     2.06300
Zr1113     Zr  0.96546347  0.47562860  0.50948276     2.10000
Zr1114     Zr  0.00828143  0.47576054  0.45536031     1.78800
O1115       O  0.94303871  0.47005895  0.54446433    -0.93200
O1116       O  0.04011709  0.47904660  0.42722941    -0.41000
O1117       O  0.00243752  0.46157506  0.49288782    -0.77600
O1118       O  0.03992078  0.48554666  0.48072231    -0.96300
O1119       O  0.03749472  0.51179455  0.52333120    -0.89600
O1120       O  0.99685051  0.48499696  0.53556795    -0.92400
C1121       C  0.97195431  0.50700078  0.41935876     1.01300
C1122       C  0.91936131  0.51471243  0.49747221     1.14200
C1123       C  0.01357020  0.57322268  0.46443063     1.05000
O1124       O  0.06875258  0.53278701  0.45332446    -0.94600
O1125       O  0.08242552  0.50754281  0.48945894    -0.90300
O1126       O  0.07663897  0.47696032  0.51159157    -0.83500
C1127       C  0.09008048  0.48996926  0.50017513     1.11700
O1128       O  0.97885710  0.56029470  0.54836901    -0.96600
Zr1129     Zr  0.00019294  0.52467030  0.53951585     1.88900
O1130       O  0.04296061  0.47773896  0.55894595    -0.73200
O1131       O  0.06340765  0.55188146  0.51063825    -0.52500
O1132       O  0.02636460  0.55342976  0.55469089    -0.97200
O1133       O  0.96841198  0.51955963  0.56743786    -0.54400
O1134       O  0.02199907  0.50869479  0.57159688    -0.73700
C1135       C  0.03656141  0.49178454  0.57475979     0.98600
O1136       O  0.05806404  0.43711336  0.52092159    -0.62600
O1137       O  0.94028868  0.45021704  0.48789278    -0.57400
O1138       O  0.01759217  0.43636683  0.52878356    -0.94000
O1139       O  0.97702897  0.43842015  0.52482565    -0.92500
O1140       O  0.98450242  0.44523248  0.44009492    -0.92800
O1141       O  0.03047028  0.43982267  0.45136996    -0.91600
C1142       C  0.99675177  0.42784481  0.53027888     1.17400
H1143       H  0.95768445  0.48568861  0.46213397     0.33400
H1144       H  0.05438108  0.47888313  0.47407967     0.44200
H1145       H  0.99427498  0.47791450  0.55006865     0.37800
H1146       H  0.00585002  0.55603229  0.50453739     0.34300
H1147       H  0.03387509  0.47155269  0.41341222     0.26000
H1148       H  0.08027781  0.55147334  0.50523273     0.32000
H1149       H  0.02922192  0.56359858  0.54180485     0.37900
H1150       H  0.96760587  0.45096760  0.44074708     0.32300
H1151       H  0.95163685  0.43850216  0.48168696     0.31200
H1152       H  0.93655255  0.45471947  0.54303829     0.32900
H1153       H  0.97525912  0.50877756  0.57861217     0.31900
H1154       H  0.03615855  0.43630447  0.46691305     0.35900
H1155       H  0.06709598  0.43572269  0.50643913     0.28600
H1156       H  0.95082873  0.56572925  0.45189432     0.32800
H1157       H  0.98015603  0.56226878  0.56505595     0.35700
H1158       H  0.93092446  0.44231567  0.49952537     0.28300
H1159       H  0.07036587  0.43978200  0.53273400     0.41200
H1160       H  0.08083120  0.54329585  0.45925169     0.31200
H1161       H  0.04002764  0.49530125  0.42344941     0.38800
H1162       H  0.95605638  0.51096340  0.55926386     0.30700
H1163       H  0.05709328  0.56711645  0.50655468     0.30800
H1164       H  0.94710240  0.57046134  0.47808165     0.31000
C1165       C  0.24344348  0.35515746  0.52958433     0.86500
C1166       C  0.22323697  0.37199392  0.52278930    -0.53800
C1167       C  0.22766724  0.38364725  0.50341610     0.09400
C1168       C  0.25166301  0.37683490  0.49186577     0.20400
C1169       C  0.24585202  0.33975271  0.50827086    -0.54500
C1170       C  0.25047247  0.35100268  0.48866259     0.09500
C1171       C  0.26655211  0.36860110  0.52977382    -0.54000
C1172       C  0.27079414  0.38000983  0.51034387     0.10100
H1173       H  0.20644618  0.37414846  0.53203544     0.14600
H1174       H  0.25516708  0.38618500  0.47600100     0.00300
H1175       H  0.24290463  0.32177311  0.50782536     0.14900
H1176       H  0.27854437  0.36928088  0.54432381     0.14700
Zr1177     Zr  0.45676285  0.49369538  0.46670019     2.17500
O1178       O  0.41601879  0.49360481  0.45125169    -0.51300
O1179       O  0.46367544  0.45539761  0.45205452    -0.74500
O1180       O  0.45437099  0.50519431  0.42698271    -0.81300
O1181       O  0.43179161  0.47659477  0.52503544    -0.83100
O1182       O  0.48661367  0.52622481  0.41830575    -0.78700
O1183       O  0.42356182  0.47788374  0.48713769    -0.90300
O1184       O  0.50046647  0.44345632  0.46459664    -0.76300
O1185       O  0.49801786  0.49325544  0.45567837    -0.85800
O1186       O  0.47780416  0.47396231  0.49617487    -0.85500
O1187       O  0.46676900  0.53280132  0.46394350    -0.72200
O1188       O  0.44838778  0.51396581  0.50159653    -0.84400
Zr1189     Zr  0.52101297  0.53292765  0.51802297     2.26400
Zr1190     Zr  0.50875262  0.53219310  0.45401020     2.06300
Zr1191     Zr  0.47021676  0.49442056  0.53098196     2.10000
Zr1192     Zr  0.51897170  0.47398416  0.48528740     1.78800
O1193       O  0.44262766  0.50735168  0.56088875    -0.93200
O1194       O  0.54688201  0.46677862  0.45390424    -0.41000
O1195       O  0.51181415  0.49379577  0.52060134    -0.77600
O1196       O  0.53041783  0.51250518  0.48341818    -0.96300
O1197       O  0.50030994  0.55264566  0.48859198    -0.89600
O1198       O  0.47983643  0.53343803  0.52877723    -0.92400
C1199       C  0.48059870  0.44034736  0.45413687     1.01300
C1200       C  0.41836843  0.47297126  0.50769655     1.14200
C1201       C  0.46695267  0.51645027  0.41298566     1.05000
O1202       O  0.53964993  0.51770660  0.42788016    -0.94600
O1203       O  0.54520802  0.55390757  0.46096395    -0.90300
O1204       O  0.55234409  0.55230348  0.49893811    -0.83500
C1205       C  0.55751994  0.55862559  0.47888661     1.11700
O1206       O  0.41759780  0.55395494  0.48535512    -0.96600
Zr1207     Zr  0.45903944  0.55263009  0.49893739     1.88900
O1208       O  0.51324180  0.57110713  0.53249591    -0.73200
O1209       O  0.50304445  0.56867451  0.43567820    -0.52500
O1210       O  0.45244789  0.58491666  0.47416068    -0.97200
O1211       O  0.43266236  0.56341035  0.53063541    -0.54400
O1212       O  0.47873337  0.58443564  0.51610025    -0.73700
C1213       C  0.49771059  0.58690315  0.52807611     0.98600
O1214       O  0.55980113  0.53042528  0.53744602    -0.62600
O1215       O  0.47519325  0.45653905  0.54635760    -0.57400
O1216       O  0.52361719  0.52233443  0.55751176    -0.94000
O1217       O  0.49307435  0.49957836  0.56644929    -0.92500
O1218       O  0.52456860  0.44040517  0.50845359    -0.92800
O1219       O  0.56007176  0.46838104  0.49883134    -0.91600
C1220       C  0.51188055  0.51072090  0.57174276     1.17400
H1221       H  0.47226747  0.45879192  0.49764516     0.33400
H1222       H  0.54749875  0.51260530  0.48038273     0.44200
H1223       H  0.47734225  0.54105408  0.54324148     0.37800
H1224       H  0.45726459  0.54025661  0.45232645     0.34300
H1225       H  0.55260545  0.45091696  0.45586680     0.26000
H1226       H  0.50645924  0.56577262  0.41937438     0.32000
H1227       H  0.44392776  0.59645554  0.48375287     0.37900
H1228       H  0.52921128  0.42814077  0.49758178     0.32300
H1229       H  0.49216344  0.45544919  0.55140984     0.31200
H1230       H  0.43812143  0.49342316  0.56880036     0.32900
H1231       H  0.44299240  0.57121953  0.54172797     0.31900
H1232       H  0.56267446  0.48139602  0.50916156     0.35900
H1233       H  0.57128141  0.52344709  0.52636856     0.28600
H1234       H  0.41688619  0.48410273  0.43729754     0.32800
H1235       H  0.41075169  0.56884908  0.49026989     0.35700
H1236       H  0.46570329  0.45698555  0.56060830     0.28300
H1237       H  0.56502030  0.54616741  0.53953018     0.41200
H1238       H  0.53216962  0.50496098  0.41980609     0.31200
H1239       H  0.53663183  0.46634106  0.44017476     0.38800
H1240       H  0.42895508  0.54895665  0.53796793     0.30700
H1241       H  0.48548235  0.57192339  0.43638282     0.30800
H1242       H  0.41255028  0.50917868  0.44594516     0.31000
C1243       C  0.39094179  0.51725936  0.21477221     0.86500
C1244       C  0.37217731  0.53699778  0.21608077    -0.53800
C1245       C  0.35710879  0.53682736  0.23440445     0.09400
C1246       C  0.36253085  0.51670147  0.25052359     0.20400
C1247       C  0.40411302  0.51960992  0.23775972    -0.54500
C1248       C  0.38953886  0.51886150  0.25658469     0.09500
C1249       C  0.37622074  0.49595319  0.21672131    -0.54000
C1250       C  0.36180205  0.49497472  0.23540015     0.10100
H1251       H  0.37189749  0.55120057  0.20459166     0.14600
H1252       H  0.35034081  0.51676495  0.26542922     0.00300
H1253       H  0.42310609  0.52269555  0.23926048     0.14900
H1254       H  0.37758004  0.48225561  0.20429227     0.14700
C1255       C  0.00360841  0.77543982  0.90928275     0.86500
C1256       C  0.98135441  0.77040249  0.89469029    -0.53800
C1257       C  0.98350767  0.75127716  0.88131590     0.09400
C1258       C  0.00825393  0.73894031  0.88374590     0.20400
C1259       C  0.00908269  0.75367680  0.92247871    -0.54500
C1260       C  0.01104509  0.73456571  0.90943613     0.09500
C1261       C  0.02446208  0.77589840  0.89198170    -0.54000
C1262       C  0.02667909  0.75714010  0.87837582     0.10100
H1263       H  0.96508190  0.78101933  0.89521838     0.14600
H1264       H  0.01045917  0.72319686  0.87354968     0.00300
H1265       H  0.01005320  0.75324214  0.94089345     0.14900
H1266       H  0.03728344  0.78919943  0.89062126     0.14700
Zr1267     Zr  0.21863197  0.71604798  0.76313996     2.17500
O1268       O  0.17911489  0.69965818  0.75907853    -0.51300
O1269       O  0.22458009  0.70667393  0.80270126    -0.74500
O1270       O  0.22126893  0.67527027  0.75978562    -0.81300
O1271       O  0.18910032  0.77307859  0.77690879    -0.83100
O1272       O  0.25255892  0.66514099  0.73651484    -0.78700
O1273       O  0.18435832  0.73519655  0.78028291    -0.90300
O1274       O  0.25980916  0.72122605  0.81410521    -0.76300
O1275       O  0.26043602  0.70695155  0.76594390    -0.85800
O1276       O  0.23599930  0.74826614  0.78031617    -0.85500
O1277       O  0.23127338  0.70843744  0.72477996    -0.72200
O1278       O  0.20868035  0.74695736  0.73852505    -0.84400
Zr1279     Zr  0.28242968  0.76305499  0.71961370     2.26400
Zr1280     Zr  0.27361825  0.69986213  0.72778228     2.06300
Zr1281     Zr  0.22682422  0.77910199  0.75571180     2.10000
Zr1282     Zr  0.27791465  0.73954682  0.78225117     1.78800
O1283       O  0.19933087  0.80317640  0.73391587    -0.93200
O1284       O  0.30821223  0.71238127  0.79592124    -0.41000
O1285       O  0.26917048  0.77047296  0.75779265    -0.77600
O1286       O  0.29211467  0.73215707  0.74444040    -0.96300
O1287       O  0.26498298  0.73079165  0.70280029    -0.89600
O1288       O  0.24051598  0.77253630  0.71739253    -0.92400
C1289       C  0.24059574  0.71051198  0.81780980     1.01300
C1290       C  0.17750514  0.75578491  0.78362536     1.14200
C1291       C  0.23428812  0.66053645  0.74891963     1.05000
O1292       O  0.30236751  0.67579292  0.74825005    -0.94600
O1293       O  0.31193065  0.70431477  0.70808045    -0.90300
O1294       O  0.31552537  0.74195760  0.70169934    -0.83500
C1295       C  0.32301887  0.72127262  0.70011792     1.11700
O1296       O  0.18404146  0.72361740  0.69422971    -0.96600
Zr1297     Zr  0.22320663  0.74003705  0.70054995     1.88900
O1298       O  0.27409300  0.77673022  0.68131107    -0.73200
O1299       O  0.27365925  0.67664157  0.69333824    -0.52500
O1300       O  0.22572882  0.71094895  0.67093232    -0.97200
O1301       O  0.19296175  0.76755165  0.68736417    -0.54400
O1302       O  0.24124660  0.75857615  0.66843113    -0.73700
C1303       C  0.25887644  0.77176245  0.66574395     0.98600
O1304       O  0.32332816  0.77693597  0.71984680    -0.62600
O1305       O  0.22436769  0.80432758  0.78872532    -0.57400
O1306       O  0.28455950  0.80220809  0.73190086    -0.94000
O1307       O  0.25165426  0.81255132  0.75303445    -0.92500
O1308       O  0.27640556  0.76937314  0.81111745    -0.92800
O1309       O  0.31697759  0.75628088  0.78798317    -0.91600
C1310       C  0.27204958  0.81660567  0.74374563     1.17400
H1311       H  0.22941865  0.75139728  0.79525855     0.33400
H1312       H  0.30934982  0.72969226  0.74518576     0.44200
H1313       H  0.23762057  0.78591891  0.70842941     0.37800
H1314       H  0.22298765  0.69561519  0.71866653     0.34300
H1315       H  0.30843900  0.71465477  0.81261599     0.26000
H1316       H  0.28377032  0.66314124  0.69709427     0.32000
H1317       H  0.24308508  0.70921268  0.66731886     0.37900
H1318       H  0.28427646  0.76258076  0.82459340     0.32300
H1319       H  0.20824149  0.81184501  0.78796562     0.31200
H1320       H  0.19044643  0.81238577  0.74548956     0.32900
H1321       H  0.20167822  0.78167032  0.68502316     0.31900
H1322       H  0.31484234  0.77204146  0.78269455     0.35900
H1323       H  0.32291166  0.79087598  0.71070590     0.28600
H1324       H  0.17837948  0.68772111  0.77069441     0.32800
H1325       H  0.18063039  0.72554931  0.67784132     0.35700
H1326       H  0.22363511  0.79426318  0.80200595     0.28300
H1327       H  0.32628964  0.78201931  0.73566566     0.41200
H1328       H  0.31793769  0.68337156  0.74706033     0.31200
H1329       H  0.30096310  0.69745072  0.79368715     0.38800
H1330       H  0.18263544  0.77079486  0.70079259     0.30700
H1331       H  0.25712203  0.67099450  0.69213251     0.30800
H1332       H  0.17960124  0.69147586  0.74431202     0.31000
C1333       C  0.49659137  0.78062891  0.61044841     0.86500
C1334       C  0.52118056  0.77664675  0.62214663    -0.53800
C1335       C  0.52496882  0.75556743  0.63054864     0.09400
C1336       C  0.50383929  0.73989598  0.62666862     0.20400
C1337       C  0.49658818  0.76158746  0.59224504    -0.54500
C1338       C  0.49977114  0.74034755  0.60090227     0.09500
C1339       C  0.47801500  0.77382924  0.62820470    -0.54000
C1340       C  0.48160363  0.75253417  0.63654510     0.10100
H1341       H  0.53581895  0.78828741  0.62200420     0.14600
H1342       H  0.50691630  0.72261649  0.63347294     0.00300
H1343       H  0.49542502  0.76447377  0.57413268     0.14900
H1344       H  0.46245049  0.78447287  0.63275626     0.14700
C1345       C  0.37553052  0.72600240  0.65968551    -0.22500
C1346       C  0.39466990  0.71886598  0.67361016     0.09500
C1347       C  0.38976244  0.70966401  0.69508857     0.09900
C1348       C  0.36576960  0.70870224  0.70253263    -0.17400
C1349       C  0.34672729  0.71730127  0.68920699    -0.27800
C1350       C  0.35163937  0.72545566  0.66722969     0.18200
C1351       C  0.41941155  0.72435148  0.66655751     0.12200
C1352       C  0.40985848  0.70150811  0.71037058    -0.12200
H1353       H  0.36199769  0.70263616  0.71943874     0.12500
C1354       C  0.33217866  0.73415707  0.65150102    -0.23000
H1355       H  0.37934068  0.73313834  0.64322347     0.08100
C1356       C  0.43128269  0.71316708  0.64823653     0.04500
C1357       C  0.45290262  0.72165873  0.64004920    -0.20200
C1358       C  0.46259799  0.74127501  0.64949047    -0.12500
C1359       C  0.45173778  0.75130094  0.66899428     0.13200
C1360       C  0.43012264  0.74287220  0.67709734    -0.23000
C1361       C  0.42092012  0.69266080  0.63701726    -0.06000
H1362       H  0.46148237  0.71371426  0.62536082     0.14700
C1363       C  0.46246381  0.77082358  0.68164775    -0.16200
H1364       H  0.42112605  0.75129277  0.69134166     0.09000
H1365       H  0.33312016  0.72451349  0.63521662     0.06900
H1366       H  0.33484487  0.75230303  0.64799976     0.08100
H1367       H  0.31386141  0.73235095  0.65853033     0.07100
H1368       H  0.42159795  0.71568631  0.71491355     0.02000
H1369       H  0.42075685  0.68806728  0.70151426     0.02500
H1370       H  0.40287637  0.69445715  0.72640127     0.06000
H1371       H  0.43280844  0.68575694  0.62325528     0.05000
H1372       H  0.40316517  0.69710034  0.62943169    -0.00800
H1373       H  0.41869992  0.67924628  0.64981144     0.00700
H1374       H  0.44990376  0.78574745  0.68106364     0.04300
H1375       H  0.48009512  0.77559513  0.67466525     0.06300
H1376       H  0.46540493  0.76608476  0.69965847     0.07100
C1377       C  0.13061204  0.76678087  0.83006874    -0.22500
C1378       C  0.11041033  0.75703989  0.82012086     0.09500
C1379       C  0.11194157  0.74871620  0.79761194     0.09900
C1380       C  0.13386073  0.74966399  0.78580474    -0.17400
C1381       C  0.15429462  0.75900379  0.79581985    -0.27800
C1382       C  0.15261392  0.76769924  0.81830874     0.18200
C1383       C  0.08794003  0.75548414  0.83369415     0.12200
C1384       C  0.09057564  0.73840323  0.78625200    -0.12200
H1385       H  0.13525303  0.74257564  0.76876950     0.12500
C1386       C  0.17380197  0.77701604  0.83083944    -0.23000
H1387       H  0.12937224  0.77317229  0.84738302     0.08100
C1388       C  0.08478642  0.73806873  0.84956119     0.04500
C1389       C  0.06373841  0.73805814  0.86289456    -0.20200
C1390       C  0.04589411  0.75516945  0.86079912    -0.12500
C1391       C  0.04857926  0.77195050  0.84402537     0.13200
C1392       C  0.06960661  0.77192633  0.83081473    -0.23000
C1393       C  0.10381495  0.71972354  0.85262501    -0.06000
H1394       H  0.06173112  0.72527995  0.87575159     0.14700
C1395       C  0.02968895  0.79018118  0.83955986    -0.16200
H1396       H  0.07185907  0.78502973  0.81832928     0.09000
H1397       H  0.17700833  0.76726236  0.84661647     0.06900
H1398       H  0.16989988  0.79498502  0.83549175     0.08100
H1399       H  0.19060329  0.77608457  0.82075504     0.07100
H1400       H  0.07560136  0.75118160  0.78515819     0.02000
H1401       H  0.08456896  0.72380146  0.79623173     0.02500
H1402       H  0.09492763  0.73233485  0.76875807     0.06000
H1403       H  0.09846257  0.70730257  0.86555096     0.05000
H1404       H  0.12089175  0.72723919  0.85824471    -0.00800
H1405       H  0.10688499  0.71054267  0.83627595     0.00700
H1406       H  0.03714794  0.80698603  0.84337463     0.04300
H1407       H  0.01312487  0.78836558  0.84975661     0.06300
H1408       H  0.02437538  0.78953478  0.82138553     0.07100
C1409       C  0.48235224  0.68954193  0.56508178    -0.22500
C1410       C  0.50410106  0.67691632  0.56501696     0.09500
C1411       C  0.52469962  0.68601441  0.57509076     0.09900
C1412       C  0.52269964  0.70698511  0.58630401    -0.17400
C1413       C  0.50085257  0.71944434  0.58692419    -0.27800
C1414       C  0.48039801  0.71074101  0.57596431     0.18200
C1415       C  0.50432806  0.65353930  0.55585522     0.12200
C1416       C  0.54873078  0.67358948  0.57406050    -0.12200
H1417       H  0.53820857  0.71350197  0.59498284     0.12500
C1418       C  0.45602410  0.72262550  0.57638438    -0.23000
H1419       H  0.46657620  0.68242313  0.55729318     0.08100
C1420       C  0.50057113  0.63501616  0.57021566     0.04500
C1421       C  0.49982256  0.61317579  0.56077993    -0.20200
C1422       C  0.50181512  0.60964822  0.53726698    -0.12500
C1423       C  0.50571609  0.62819823  0.52288732     0.13200
C1424       C  0.50709692  0.64994088  0.53243154    -0.23000
C1425       C  0.49634136  0.63843922  0.59533680    -0.06000
H1426       H  0.49658127  0.59891945  0.57165459     0.14700
C1427       C  0.50846511  0.62569239  0.49747410    -0.16200
H1428       H  0.50991713  0.66424058  0.52149575     0.09000
H1429       H  0.44273153  0.71152301  0.58434423     0.06900
H1430       H  0.45020620  0.72627692  0.55872938     0.08100
H1431       H  0.45577674  0.73874098  0.58611332     0.07100
H1432       H  0.55410644  0.67087967  0.55603972     0.02000
H1433       H  0.54765365  0.65696652  0.58243611     0.02500
H1434       H  0.56299336  0.68325040  0.58266575     0.06000
H1435       H  0.49327345  0.62220883  0.60400370     0.05000
H1436       H  0.48021895  0.64967394  0.59810732    -0.00800
H1437       H  0.51215005  0.64627754  0.60332450     0.00700
H1438       H  0.49383249  0.63552676  0.48892152     0.04300
H1439       H  0.50787700  0.60792018  0.49143385     0.06300
H1440       H  0.52604584  0.63234046  0.49219236     0.07100
C1441       C  0.45868518  0.51513090  0.34814829    -0.22500
C1442       C  0.43476243  0.52325118  0.34615780     0.09500
C1443       C  0.42206470  0.52985098  0.36605756     0.09900
C1444       C  0.43326678  0.52763531  0.38739989    -0.17400
C1445       C  0.45703753  0.51909421  0.38955085    -0.27800
C1446       C  0.46994298  0.51282642  0.36953592     0.18200
C1447       C  0.42271638  0.52309687  0.32339440     0.12200
C1448       C  0.39667030  0.53935843  0.36476097    -0.12200
H1449       H  0.42333266  0.53257750  0.40261124     0.12500
C1450       C  0.49509147  0.50264535  0.37005474    -0.23000
H1451       H  0.46840452  0.50982413  0.33292789     0.08100
C1452       C  0.42703304  0.53947320  0.30673012     0.04500
C1453       C  0.41530716  0.53816488  0.28550139    -0.20200
C1454       C  0.39947173  0.52068285  0.28029475    -0.12500
C1455       C  0.39526790  0.50428714  0.29712277     0.13200
C1456       C  0.40674693  0.50586041  0.31839071    -0.23000
C1457       C  0.44402787  0.55828733  0.31137047    -0.06000
H1458       H  0.41876324  0.55073156  0.27275034     0.14700
C1459       C  0.38006055  0.48415859  0.29248220    -0.16200
H1460       H  0.40365801  0.49320796  0.33115175     0.09000
H1461       H  0.50756474  0.51412034  0.36149213     0.06900
H1462       H  0.49550501  0.48613464  0.36088839     0.08100
H1463       H  0.50173870  0.49951145  0.38748627     0.07100
H1464       H  0.38469112  0.52659065  0.35731354     0.02000
H1465       H  0.39618361  0.55464037  0.35398318     0.02500
H1466       H  0.38952193  0.54422765  0.38180926     0.06000
H1467       H  0.44519818  0.56986018  0.29671569     0.05000
H1468       H  0.46234197  0.55113068  0.31476137    -0.00800
H1469       H  0.43771725  0.56830999  0.32640274     0.00700
H1470       H  0.38021123  0.47230957  0.30697555     0.04300
H1471       H  0.38726518  0.47475429  0.27751702     0.06300
H1472       H  0.36109492  0.48950572  0.28954964     0.07100
C1473       C  0.35274875  0.45853830  0.50328917    -0.22500
C1474       C  0.35351592  0.43631210  0.51122177     0.09500
C1475       C  0.37525277  0.42695507  0.51993055     0.09900
C1476       C  0.39594906  0.43992782  0.51992181    -0.17400
C1477       C  0.39537933  0.46186971  0.51120176    -0.27800
C1478       C  0.37336585  0.47155466  0.50339457     0.18200
C1479       C  0.33143824  0.42302421  0.51004829     0.12200
C1480       C  0.37668002  0.40326759  0.52906895    -0.12200
H1481       H  0.41288498  0.43257674  0.52582110     0.12500
C1482       C  0.37091803  0.49561349  0.49537196    -0.23000
H1483       H  0.33597191  0.46572749  0.49682444     0.08100
C1484       C  0.31184693  0.42748617  0.52484065     0.04500
C1485       C  0.29186690  0.41364876  0.52374695    -0.20200
C1486       C  0.29128749  0.39519037  0.50859599    -0.12500
C1487       C  0.31103347  0.39064540  0.49391801     0.13200
C1488       C  0.33057310  0.40501938  0.49443490    -0.23000
C1489       C  0.31238890  0.44624100  0.54233641    -0.06000
H1490       H  0.27683313  0.41684566  0.53521137     0.14700
C1491       C  0.31291109  0.37019992  0.47852073    -0.16200
H1492       H  0.34572948  0.40162968  0.48316054     0.09000
H1493       H  0.35681979  0.50478949  0.50554394     0.06900
H1494       H  0.36553696  0.49575771  0.47721488     0.08100
H1495       H  0.38773102  0.50503986  0.49725228     0.07100
H1496       H  0.37276147  0.39088228  0.51538591     0.02000
H1497       H  0.36344932  0.40162522  0.54304716     0.02500
H1498       H  0.39485526  0.39892568  0.53584133     0.06000
H1499       H  0.29592750  0.44681620  0.55305984     0.05000
H1500       H  0.31360434  0.46279510  0.53383893    -0.00800
H1501       H  0.32818178  0.44362805  0.55364492     0.00700
H1502       H  0.31472618  0.37560525  0.46062696     0.04300
H1503       H  0.29714901  0.35946464  0.47964182     0.06300
H1504       H  0.32902250  0.35971094  0.48320462     0.07100
C1505       C  0.15030109  0.46255045  0.51393794    -0.22500
C1506       C  0.15809058  0.45588313  0.49215716     0.09500
C1507       C  0.14571773  0.46425438  0.47294652     0.09900
C1508       C  0.12465238  0.47773923  0.47604215    -0.17400
C1509       C  0.11563578  0.48266006  0.49793022    -0.27800
C1510       C  0.12931816  0.47595780  0.51707057     0.18200
C1511       C  0.17705479  0.43777480  0.49036724     0.12200
C1512       C  0.15423569  0.45820109  0.44930209    -0.12200
H1513       H  0.11420603  0.48292942  0.46135109     0.12500
C1514       C  0.12196912  0.48228941  0.54101391    -0.23000
H1515       H  0.16007015  0.45637627  0.52866798     0.08100
C1516       C  0.20170993  0.44218040  0.49287493     0.04500
C1517       C  0.21837694  0.42396581  0.49514387    -0.20200
C1518       C  0.21074235  0.40157239  0.49524382    -0.12500
C1519       C  0.18627848  0.39719507  0.49104945     0.13200
C1520       C  0.16972983  0.41536355  0.48883298    -0.23000
C1521       C  0.21021237  0.46605952  0.49390543    -0.06000
H1522       H  0.23716526  0.42725821  0.49828843     0.14700
C1523       C  0.17701262  0.37357565  0.48918600    -0.16200
H1524       H  0.15078963  0.41202586  0.48669412     0.09000
H1525       H  0.13692963  0.49104348  0.54953562     0.06900
H1526       H  0.11799349  0.46680129  0.55061080     0.08100
H1527       H  0.10594204  0.49389781  0.54168150     0.07100
H1528       H  0.15419536  0.43960029  0.44672147     0.02000
H1529       H  0.17279273  0.46415023  0.44685297     0.02500
H1530       H  0.14250716  0.46612554  0.43616282     0.06000
H1531       H  0.23006260  0.46656193  0.49580144     0.05000
H1532       H  0.20181369  0.47517908  0.50861295    -0.00800
H1533       H  0.20510728  0.47493042  0.47802408     0.00700
H1534       H  0.16438678  0.37061046  0.50339410     0.04300
H1535       H  0.19157527  0.36036623  0.48949395     0.06300
H1536       H  0.16731187  0.37159938  0.47284017     0.07100
C1537       C  0.43899820  0.49915921  0.16886937    -0.22500
C1538       C  0.42911378  0.50900906  0.14937708     0.09500
C1539       C  0.40743032  0.52173649  0.15123346     0.09900
C1540       C  0.39645486  0.52490692  0.17257384    -0.17400
C1541       C  0.40647785  0.51589531  0.19278063    -0.27800
C1542       C  0.42783675  0.50186001  0.19035837     0.18200
C1543       C  0.44104494  0.50525902  0.12687347     0.12200
C1544       C  0.39540104  0.53147997  0.13042971    -0.12200
H1545       H  0.37908818  0.53353950  0.17287921     0.12500
C1546       C  0.43882263  0.48860869  0.20967682    -0.23000
H1547       H  0.45538578  0.48888088  0.16712594     0.08100
C1548       C  0.45756158  0.52067474  0.11835019     0.04500
C1549       C  0.46600374  0.51816488  0.09589193    -0.20200
C1550       C  0.45846128  0.50047998  0.08162491    -0.12500
C1551       C  0.44263856  0.48447130  0.09057260     0.13200
C1552       C  0.43411603  0.48711738  0.11305092    -0.23000
C1553       C  0.46586486  0.54005227  0.13285357    -0.06000
H1554       H  0.47837073  0.53030727  0.08932230     0.14700
C1555       C  0.43372426  0.46521137  0.07625295    -0.16200
H1556       H  0.42137194  0.47536594  0.11969338     0.09000
H1557       H  0.45287808  0.47622693  0.20360719     0.06900
H1558       H  0.42497246  0.47883418  0.21829967     0.08100
H1559       H  0.44785954  0.49994745  0.22179071     0.07100
H1560       H  0.39120093  0.51766482  0.11828995     0.02000
H1561       H  0.40753004  0.54340828  0.12207790     0.02500
H1562       H  0.37831423  0.54079029  0.13467525     0.06000
H1563       H  0.47892970  0.55049078  0.12370868     0.05000
H1564       H  0.47474335  0.53341202  0.14840226    -0.00800
H1565       H  0.45022818  0.55112452  0.13784297     0.00700
H1566       H  0.44899669  0.45362404  0.07143422     0.04300
H1567       H  0.42487453  0.47188649  0.06070143     0.06300
H1568       H  0.42042054  0.45516578  0.08554227     0.07100
C1569       C  0.98577745  0.64440447  0.96932092    -0.22500
C1570       C  0.00472260  0.64818880  0.95415462     0.09500
C1571       C  0.02136995  0.63045978  0.94905248     0.09900
C1572       C  0.01835500  0.60922628  0.95868568    -0.17400
C1573       C  0.99861982  0.60476614  0.97286780    -0.27800
C1574       C  0.98240274  0.62289082  0.97870250     0.18200
C1575       C  0.00621071  0.67035933  0.94268427     0.12200
C1576       C  0.04178544  0.63361489  0.93261689    -0.12200
H1577       H  0.03125911  0.59574717  0.95441320     0.12500
C1578       C  0.96106486  0.61965575  0.99397434    -0.23000
H1579       H  0.97315698  0.65821464  0.97325821     0.08100
C1580       C  0.99117324  0.67594641  0.92413230     0.04500
C1581       C  0.99387989  0.69661776  0.91306179    -0.20200
C1582       C  0.01154145  0.71173694  0.91982924    -0.12500
C1583       C  0.02724290  0.70568562  0.93790573     0.13200
C1584       C  0.02405204  0.68528561  0.94934518    -0.23000
C1585       C  0.97244700  0.65996111  0.91584278    -0.06000
H1586       H  0.98172561  0.70123233  0.89937589     0.14700
C1587       C  0.04804489  0.71985925  0.94508853    -0.16200
H1588       H  0.03597576  0.68070466  0.96323137     0.09000
H1589       H  0.94930815  0.60667016  0.98655870     0.06900
H1590       H  0.95007167  0.63551635  0.99616138     0.08100
H1591       H  0.96729235  0.61432671  0.01106320     0.07100
H1592       H  0.05385758  0.64675351  0.93918392     0.02000
H1593       H  0.03449711  0.63886809  0.91586408     0.02500
H1594       H  0.05274458  0.61778886  0.93002122     0.06000
H1595       H  0.96237069  0.66684043  0.90104119     0.05000
H1596       H  0.95931190  0.65691587  0.92959411    -0.00800
H1597       H  0.98126556  0.64364606  0.91058258     0.00700
H1598       H  0.04501100  0.72631901  0.96267499     0.04300
H1599       H  0.05086692  0.73432967  0.93372370     0.06300
H1600       H  0.06490946  0.70931556  0.94469446     0.07100
C1601       C  0.49953687  0.34039005  0.41531641    -0.22500
C1602       C  0.47682990  0.34799274  0.42309756     0.09500
C1603       C  0.45752634  0.33307585  0.42311096     0.09900
C1604       C  0.46161228  0.31056461  0.41593779    -0.17400
C1605       C  0.48435560  0.30299543  0.40814288    -0.27800
C1606       C  0.50346695  0.31809210  0.40757542     0.18200
C1607       C  0.47422073  0.37155831  0.43162923     0.12200
C1608       C  0.43265207  0.34102792  0.43027266    -0.12200
H1609       H  0.44694626  0.29890913  0.41600165     0.12500
C1610       C  0.52804979  0.31063055  0.39912228    -0.23000
H1611       H  0.51423468  0.35200830  0.41532811     0.08100
C1612       C  0.47898800  0.37690577  0.45454028     0.04500
C1613       C  0.48017640  0.39961113  0.46122788    -0.20200
C1614       C  0.47666001  0.41717186  0.44562366    -0.12500
C1615       C  0.47065272  0.41183207  0.42283149     0.13200
C1616       C  0.46955729  0.38899313  0.41614808    -0.23000
C1617       C  0.48347181  0.35866909  0.47182461    -0.06000
H1618       H  0.48433532  0.40372518  0.47876481     0.14700
C1619       C  0.46650114  0.42946257  0.40486996    -0.16200
H1620       H  0.46593596  0.38473185  0.39853832     0.09000
H1621       H  0.54111059  0.32439616  0.40054584     0.06900
H1622       H  0.52700604  0.30554733  0.38096740     0.08100
H1623       H  0.53497176  0.29610785  0.40922506     0.07100
H1624       H  0.42627456  0.35490415  0.41903726     0.02000
H1625       H  0.43287468  0.34733172  0.44808517     0.02500
H1626       H  0.41961281  0.32721625  0.42912700     0.06000
H1627       H  0.48698438  0.36585600  0.48897756     0.05000
H1628       H  0.49934464  0.34796413  0.46672424    -0.00800
H1629       H  0.46751373  0.34795339  0.47306234     0.00700
H1630       H  0.47940904  0.42637243  0.39068182     0.04300
H1631       H  0.46892668  0.44692408  0.41116338     0.06300
H1632       H  0.44791384  0.42828856  0.39816040     0.07100
C1633       C  0.46950819  0.83284477  0.57872618    -0.22500
C1634       C  0.48544883  0.84951675  0.58531909     0.09500
C1635       C  0.50337901  0.84451582  0.60139055     0.09900
C1636       C  0.50587613  0.82257010  0.60964543    -0.17400
C1637       C  0.49165793  0.80476221  0.60156840    -0.27800
C1638       C  0.47203181  0.81058773  0.58685448     0.18200
C1639       C  0.48392078  0.87210278  0.57492343     0.12200
C1640       C  0.52010133  0.86240542  0.60979068    -0.12200
H1641       H  0.51873954  0.81998616  0.62308153     0.12500
C1642       C  0.45328705  0.79399307  0.57968898    -0.23000
H1643       H  0.45526589  0.83722802  0.56685316     0.08100
C1644       C  0.49638543  0.87641861  0.55467419     0.04500
C1645       C  0.49779218  0.89870219  0.54715304    -0.20200
C1646       C  0.48723643  0.91690146  0.55954553    -0.12500
C1647       C  0.47467158  0.91240657  0.57996129     0.13200
C1648       C  0.47295712  0.88999799  0.58717721    -0.23000
C1649       C  0.50872288  0.85751387  0.54134352    -0.06000
H1650       H  0.50734820  0.90189577  0.53151302     0.14700
C1651       C  0.46439846  0.93100718  0.59509680    -0.16200
H1652       H  0.46395143  0.88643784  0.60302814     0.09000
H1653       H  0.43784955  0.80263058  0.57108981     0.06900
H1654       H  0.44591460  0.78533094  0.59463188     0.08100
H1655       H  0.46078870  0.78145155  0.56734617     0.07100
H1656       H  0.50957749  0.87629857  0.61832450     0.02000
H1657       H  0.53016967  0.86932769  0.59527098     0.02500
H1658       H  0.53343456  0.85558412  0.62217436     0.06000
H1659       H  0.51791658  0.86381951  0.52601153     0.05000
H1660       H  0.49525392  0.84516051  0.53575834    -0.00800
H1661       H  0.52243778  0.84881074  0.55211336     0.00700
H1662       H  0.45706558  0.92433050  0.61115788     0.04300
H1663       H  0.44942832  0.94022582  0.58643201     0.06300
H1664       H  0.47883718  0.94277737  0.59961403     0.07100
C1665       C  0.49379538  0.13586520  0.43755015    -0.22500
C1666       C  0.48913937  0.15434307  0.45221269     0.09500
C1667       C  0.48489049  0.15075728  0.47543843     0.09900
C1668       C  0.48531494  0.12863020  0.48352280    -0.17400
C1669       C  0.49008899  0.11004770  0.46896003    -0.27800
C1670       C  0.49406827  0.11364364  0.44556274     0.18200
C1671       C  0.48930012  0.17730888  0.44279531     0.12200
C1672       C  0.48052757  0.17025848  0.49174890    -0.12200
H1673       H  0.48224378  0.12580645  0.50145185     0.12500
C1674       C  0.49762511  0.09466645  0.42845295    -0.23000
H1675       H  0.49693380  0.13882935  0.41965482     0.08100
C1676       C  0.51106019  0.18749957  0.43755272     0.04500
C1677       C  0.51043041  0.20796600  0.42593916    -0.20200
C1678       C  0.48847193  0.21862165  0.41939223    -0.12500
C1679       C  0.46693192  0.21043878  0.42893109     0.13200
C1680       C  0.46749440  0.18920524  0.43931291    -0.23000
C1681       C  0.53490136  0.17696761  0.44458263    -0.06000
H1682       H  0.52736297  0.21564128  0.42231780     0.14700
C1683       C  0.44337412  0.22374906  0.42955605    -0.16200
H1684       H  0.45086571  0.18204047  0.44506501     0.09000
H1685       H  0.51584129  0.09543883  0.42081630     0.06900
H1686       H  0.48400960  0.09653151  0.41475251     0.08100
H1687       H  0.49557366  0.07769582  0.43577929     0.07100
H1688       H  0.46402500  0.18001294  0.48683580     0.02000
H1689       H  0.49611525  0.18153555  0.49146953     0.02500
H1690       H  0.47811840  0.16441156  0.50944767     0.06000
H1691       H  0.55021878  0.18742164  0.43950660     0.05000
H1692       H  0.53748295  0.16002582  0.43654791    -0.00800
H1693       H  0.53534757  0.17524121  0.46334968     0.00700
H1694       H  0.42967335  0.21483436  0.41943965     0.04300
H1695       H  0.44477425  0.24119253  0.42326933     0.06300
H1696       H  0.43702960  0.22526754  0.44742941     0.07100
C1697       C  0.32707547  0.11703443  0.00860818    -0.22500
C1698       C  0.32414261  0.09382472  0.01141105     0.09500
C1699       C  0.30089697  0.08568038  0.01536917     0.09900
C1700       C  0.28114023  0.10109057  0.01680790    -0.17400
C1701       C  0.28428309  0.12441689  0.01482312    -0.27800
C1702       C  0.30747977  0.13243694  0.01028341     0.18200
C1703       C  0.34605701  0.07881939  0.01174120     0.12200
C1704       C  0.29698068  0.06078355  0.01790324    -0.12200
H1705       H  0.26325622  0.09498692  0.01990018     0.12500
C1706       C  0.31178964  0.15721155  0.00727914    -0.23000
H1707       H  0.34497146  0.12317301  0.00566863     0.08100
C1708       C  0.35947840  0.07367159  0.99189723     0.04500
C1709       C  0.38147052  0.06142095  0.99362573    -0.20200
C1710       C  0.39031726  0.05388160  0.01473464    -0.12500
C1711       C  0.37639229  0.05873003  0.03457275     0.13200
C1712       C  0.35459932  0.07121771  0.03274986    -0.23000
C1713       C  0.35046287  0.08090724  0.96889229    -0.06000
H1714       H  0.39179849  0.05767853  0.97834212     0.14700
C1715       C  0.38459830  0.05172018  0.05791539    -0.16200
H1716       H  0.34430419  0.07553457  0.04792595     0.09000
H1717       H  0.33053373  0.16020853  0.00181363     0.06900
H1718       H  0.30884033  0.16621324  0.02367730     0.08100
H1719       H  0.29950145  0.16441670  0.99422524     0.07100
H1720       H  0.30705859  0.05424411  0.03283090     0.02000
H1721       H  0.30336806  0.05159970  0.00237919     0.02500
H1722       H  0.27766208  0.05723592  0.02039685     0.06000
H1723       H  0.36295230  0.07520768  0.95509560     0.05000
H1724       H  0.34860612  0.09960047  0.96824136    -0.00800
H1725       H  0.33267145  0.07350547  0.96560125     0.00700
H1726       H  0.40252498  0.05867382  0.06153892     0.04300
H1727       H  0.38540413  0.03301711  0.05900395     0.06300
H1728       H  0.37203389  0.05806109  0.07138882     0.07100
C1729       C  0.05601230  0.98597273  0.37694011    -0.22500
C1730       C  0.05266030  0.00592615  0.36461097     0.09500
C1731       C  0.03615086  0.02266469  0.37293564     0.09900
C1732       C  0.02567114  0.02024889  0.39461345    -0.17400
C1733       C  0.03026694  0.00089092  0.40787928    -0.27800
C1734       C  0.04463397  0.98294817  0.39806731     0.18200
C1735       C  0.06668887  0.00883571  0.34312854     0.12200
C1736       C  0.02881644  0.04260454  0.35853029    -0.12200
H1737       H  0.01389992  0.03368360  0.40123903     0.12500
C1738       C  0.04745872  0.96015895  0.40910146    -0.23000
H1739       H  0.06779527  0.97268216  0.37000731     0.08100
C1740       C  0.08645470  0.02317065  0.34223259     0.04500
C1741       C  0.09913977  0.02543217  0.32168908    -0.20200
C1742       C  0.09346947  0.01308076  0.30172070    -0.12500
C1743       C  0.07547188  0.99647947  0.30387767     0.13200
C1744       C  0.06168476  0.99548619  0.32399692    -0.23000
C1745       C  0.09532317  0.03494321  0.36337459    -0.06000
H1746       H  0.11457728  0.03602798  0.32199200     0.31500
C1747       C  0.07086580  0.97849198  0.28620740    -0.16200
H1748       H  0.04751255  0.98336278  0.32513283     0.09000
H1749       H  0.05851403  0.96144088  0.42463772     0.06900
H1750       H  0.05666482  0.94755512  0.39769362     0.08100
H1751       H  0.02949317  0.95362089  0.41330110     0.07100
H1752       H  0.02087275  0.03645498  0.34238666     0.02000
H1753       H  0.04450819  0.05290957  0.35447404     0.02500
H1754       H  0.01516907  0.05373865  0.36722348     0.06000
H1755       H  0.11116984  0.04532624  0.35982804     0.05000
H1756       H  0.10071159  0.02213185  0.37618313    -0.00800
H1757       H  0.08111131  0.04628796  0.37077244     0.00700
H1758       H  0.07146247  0.96165276  0.29436200     0.04300
H1759       H  0.08447399  0.97747453  0.27258216     0.06300
H1760       H  0.05276271  0.98141587  0.27865948     0.07100
C1761       C  0.29829315  0.40540779  0.26490427    -0.22500
C1762       C  0.30743169  0.41245005  0.24405849     0.09500
C1763       C  0.30439896  0.39853577  0.22466279     0.09900
C1764       C  0.29263241  0.37786666  0.22663443    -0.17400
C1765       C  0.28386154  0.37033352  0.24763693    -0.27800
C1766       C  0.28641670  0.38480926  0.26700745     0.18200
C1767       C  0.32094495  0.43397331  0.24311614     0.12200
C1768       C  0.31354097  0.40552964  0.20177586    -0.12200
H1769       H  0.29074631  0.36731491  0.21162099     0.12500
C1770       C  0.27615323  0.37937328  0.28994301    -0.23000
H1771       H  0.30064666  0.41612567  0.27974205     0.08100
C1772       C  0.30946861  0.45560431  0.24492385     0.04500
C1773       C  0.32323338  0.47527676  0.24343535    -0.20200
C1774       C  0.34831738  0.47388170  0.24031165    -0.12500
C1775       C  0.35976794  0.45200795  0.23940039     0.13200
C1776       C  0.34595322  0.43257575  0.24053948    -0.23000
C1777       C  0.28260096  0.45788151  0.24773646    -0.06000
H1778       H  0.31427483  0.49179149  0.24396955     0.14700
C1779       C  0.38663834  0.44822659  0.23775910    -0.16200
H1780       H  0.35488227  0.41603806  0.23963931     0.09000
H1781       H  0.25651011  0.37711088  0.28834681     0.06900
H1782       H  0.27876491  0.39321074  0.30252025     0.08100
H1783       H  0.28517148  0.36397704  0.29688951     0.07100
H1784       H  0.33342439  0.40657703  0.20216656     0.02000
H1785       H  0.30549110  0.42228785  0.19730487     0.02500
H1786       H  0.30882757  0.39326452  0.18819743     0.06000
H1787       H  0.27628439  0.47585788  0.24786475     0.05000
H1788       H  0.27716590  0.45029105  0.26403774    -0.00800
H1789       H  0.27358841  0.44906932  0.23349062     0.00700
H1790       H  0.39283647  0.43654110  0.25132497     0.04300
H1791       H  0.39656214  0.46390965  0.24023892     0.06300
H1792       H  0.39139970  0.44058283  0.22097110     0.07100
C1793       C  0.23109893  0.28791700  0.39765810    -0.22500
C1794       C  0.25041083  0.30164103  0.40334418     0.09500
C1795       C  0.26885879  0.30471851  0.38741084     0.09900
C1796       C  0.26658923  0.29561203  0.36556772    -0.17400
C1797       C  0.24643488  0.28324199  0.35901857    -0.27800
C1798       C  0.22885355  0.27858518  0.37564181     0.18200
C1799       C  0.25015581  0.31428858  0.42522658     0.12200
C1800       C  0.29044262  0.31855136  0.39302040    -0.12200
H1801       H  0.28019594  0.29931297  0.35310932     0.12500
C1802       C  0.20712950  0.26498471  0.37013497    -0.23000
H1803       H  0.21721607  0.28534688  0.41022527     0.08100
C1804       C  0.23559912  0.33407037  0.42830083     0.04500
C1805       C  0.23686026  0.34629891  0.44883720    -0.20200
C1806       C  0.25227486  0.33912427  0.46636142    -0.12500
C1807       C  0.26756107  0.31976529  0.46285035     0.13200
C1808       C  0.26603832  0.30746974  0.44243566    -0.23000
C1809       C  0.21878722  0.34226812  0.40988103    -0.06000
H1810       H  0.22523166  0.36113340  0.45149284     0.14700
C1811       C  0.28619661  0.31185649  0.47984464    -0.16200
H1812       H  0.27764183  0.29261960  0.43974871     0.09000
H1813       H  0.19644435  0.27336983  0.35653169     0.06900
H1814       H  0.19523600  0.26329343  0.38515779     0.08100
H1815       H  0.21292576  0.24770818  0.36448937     0.07100
H1816       H  0.30058672  0.31074826  0.40729374     0.02000
H1817       H  0.28451787  0.33602143  0.39788066     0.02500
H1818       H  0.30295378  0.31954840  0.37836062     0.06000
H1819       H  0.20906972  0.35823109  0.41487297     0.05000
H1820       H  0.20519386  0.32935954  0.40629696    -0.00800
H1821       H  0.22913968  0.34540092  0.39414377     0.00700
H1822       H  0.28757776  0.32316700  0.49485236     0.04300
H1823       H  0.28187822  0.29471392  0.48577269     0.06300
H1824       H  0.30418029  0.31108137  0.47159394     0.07100
C1825       C  0.41656803  0.25171003  0.32942514    -0.22500
C1826       C  0.40577466  0.27331823  0.33152235     0.09500
C1827       C  0.41693728  0.29002819  0.34466541     0.09900
C1828       C  0.43844984  0.28451540  0.35602918    -0.17400
C1829       C  0.44875027  0.26255265  0.35488813    -0.27800
C1830       C  0.43812454  0.24615739  0.34067015     0.18200
C1831       C  0.38199948  0.27751139  0.32095221     0.12200
C1832       C  0.40559547  0.31333477  0.34747456    -0.12200
H1833       H  0.44649952  0.29710489  0.36687958     0.12500
C1834       C  0.44907389  0.22284285  0.33662929    -0.23000
H1835       H  0.40797469  0.23902286  0.31906337     0.08100
C1836       C  0.37964806  0.28555851  0.29858574     0.04500
C1837       C  0.35664034  0.28760771  0.28886911    -0.20200
C1838       C  0.33609264  0.28187404  0.30112816    -0.12500
C1839       C  0.33850074  0.27417792  0.32368922     0.13200
C1840       C  0.36146907  0.27216957  0.33333183    -0.23000
C1841       C  0.40142234  0.29142123  0.28487197    -0.06000
H1842       H  0.35469982  0.29313688  0.27145007     0.14700
C1843       C  0.31746559  0.26705944  0.33777275    -0.16200
H1844       H  0.36345577  0.26586898  0.35048345     0.09000
H1845       H  0.45105886  0.21970599  0.31807616     0.06900
H1846       H  0.43710747  0.21002154  0.34377035     0.08100
H1847       H  0.46722300  0.22059318  0.34414851     0.07100
H1848       H  0.38754049  0.31215022  0.35536510     0.02000
H1849       H  0.40366402  0.32150544  0.33068201     0.02500
H1850       H  0.41661054  0.32431764  0.35848934     0.06000
H1851       H  0.39638622  0.29737159  0.26764240     0.05000
H1852       H  0.41359719  0.27630505  0.28295685    -0.00800
H1853       H  0.41125177  0.30506370  0.29355715     0.00700
H1854       H  0.31991743  0.24897476  0.34226711     0.04300
H1855       H  0.29999395  0.26914996  0.32889801     0.06300
H1856       H  0.31668174  0.27727494  0.35370104     0.07100
C1857       C  0.15226259  0.10026521  0.23866703    -0.22500
C1858       C  0.16757458  0.10738222  0.25613038     0.09500
C1859       C  0.17430024  0.09175461  0.27312513     0.09900
C1860       C  0.16463647  0.06998977  0.27293092    -0.17400
C1861       C  0.14872541  0.06293425  0.25584170    -0.27800
C1862       C  0.14293086  0.07833529  0.23813888     0.18200
C1863       C  0.17577331  0.13137750  0.25670714     0.12200
C1864       C  0.19187685  0.09798175  0.29142679    -0.12200
H1865       H  0.16916712  0.05845903  0.28656101     0.12500
C1866       C  0.12632273  0.07292193  0.21882162    -0.23000
H1867       H  0.14711962  0.11212793  0.22550103     0.08100
C1868       C  0.19311168  0.13921536  0.24134820     0.04500
C1869       C  0.20008278  0.16194357  0.24254837    -0.20200
C1870       C  0.19063822  0.17720129  0.25909808    -0.12500
C1871       C  0.17334375  0.16924441  0.27457256     0.13200
C1872       C  0.16602418  0.14660392  0.27302961    -0.23000
C1873       C  0.20474514  0.12343472  0.22404047    -0.06000
H1874       H  0.21338741  0.16775137  0.23066477     0.14700
C1875       C  0.16194923  0.18467296  0.29230897    -0.16200
H1876       H  0.15258313  0.14067367  0.28470578     0.09000
H1877       H  0.11994435  0.05560982  0.21928033     0.06900
H1878       H  0.11035203  0.08464115  0.21932028     0.08100
H1879       H  0.13588169  0.07494091  0.20243071     0.07100
H1880       H  0.18460650  0.11252685  0.30160349     0.02000
H1881       H  0.20917447  0.10258926  0.28353555     0.02500
H1882       H  0.19554886  0.08374522  0.30317903     0.06000
H1883       H  0.21821988  0.13209671  0.21357500     0.05000
H1884       H  0.19091813  0.11670587  0.21242489    -0.00800
H1885       H  0.21405316  0.10915600  0.23282555     0.00700
H1886       H  0.15327132  0.19957771  0.28403011     0.04300
H1887       H  0.17580536  0.19035907  0.30447226     0.06300
H1888       H  0.14797006  0.17603439  0.30218515     0.07100
C1889       C  0.25599291  0.22248402  0.07010188    -0.22500
C1890       C  0.23713006  0.22328399  0.08578337     0.09500
C1891       C  0.21774132  0.20886633  0.08280836     0.09900
C1892       C  0.21797629  0.19349206  0.06451585    -0.17400
C1893       C  0.23766483  0.19123279  0.04928700    -0.27800
C1894       C  0.25678069  0.20669118  0.05210640     0.18200
C1895       C  0.23963131  0.23676853  0.10697230     0.12200
C1896       C  0.19719908  0.20895547  0.09959934    -0.12200
H1897       H  0.20260351  0.18309015  0.06301914     0.12500
C1898       C  0.27888945  0.20716930  0.03722863    -0.23000
H1899       H  0.27088817  0.23366798  0.07257148     0.08100
C1900       C  0.25475210  0.22876036  0.12454848     0.04500
C1901       C  0.25424045  0.23987999  0.14564145    -0.20200
C1902       C  0.23904092  0.25883543  0.14964234    -0.12500
C1903       C  0.22470771  0.26757320  0.13175691     0.13200
C1904       C  0.22519901  0.25638057  0.11053982    -0.23000
C1905       C  0.27052385  0.20776444  0.12146000    -0.06000
H1906       H  0.26496529  0.23309986  0.15950952     0.14700
C1907       C  0.20810384  0.28797924  0.13469366    -0.16200
H1908       H  0.21359172  0.26246011  0.09698836     0.09000
H1909       H  0.29514769  0.20363318  0.04770789     0.06900
H1910       H  0.28026874  0.22421953  0.02975650     0.08100
H1911       H  0.27915520  0.19495072  0.02303112     0.07100
H1912       H  0.18779994  0.22576292  0.09983258     0.02000
H1913       H  0.20418522  0.20519739  0.11686271     0.02500
H1914       H  0.18377985  0.19608742  0.09523937     0.06000
H1915       H  0.28056837  0.20346209  0.13720548     0.05000
H1916       H  0.28389290  0.21038262  0.10780641    -0.00800
H1917       H  0.25932478  0.19319502  0.11685356     0.00700
H1918       H  0.21330714  0.30121589  0.12258353     0.04300
H1919       H  0.20864141  0.29535539  0.15206810     0.06300
H1920       H  0.18933038  0.28327917  0.13098800     0.07100
C1921       C  0.98583847  0.81347163  0.96110767    -0.22500
C1922       C  0.99907286  0.83281716  0.95730932     0.09500
C1923       C  0.01189226  0.83449202  0.93669601     0.09900
C1924       C  0.01226318  0.81632850  0.92111498    -0.17400
C1925       C  0.00000843  0.79621462  0.92523682    -0.27800
C1926       C  0.98507815  0.79577613  0.94499516     0.18200
C1927       C  0.99768464  0.85202783  0.97400321     0.12200
C1928       C  0.02468900  0.85574246  0.93065423    -0.12200
H1929       H  0.02176648  0.81854651  0.90539230     0.12500
C1930       C  0.96768983  0.77732857  0.94992229    -0.23000
H1931       H  0.97546460  0.81236574  0.97663297     0.08100
C1932       C  0.97618129  0.86494170  0.97735635     0.04500
C1933       C  0.97682463  0.88535027  0.98970029    -0.20200
C1934       C  0.99854039  0.89389365  0.99807098    -0.12500
C1935       C  0.01977782  0.88004252  0.99611692     0.13200
C1936       C  0.01880825  0.85905160  0.98467667    -0.23000
C1937       C  0.95281531  0.85817953  0.96660477    -0.06000
H1938       H  0.96044723  0.89568597  0.99124794     0.14700
C1939       C  0.04421089  0.88717190  0.00398522    -0.16200
H1940       H  0.03519433  0.84882924  0.98256326     0.09000
H1941       H  0.94939933  0.78499730  0.95251186     0.06900
H1942       H  0.97322729  0.76846005  0.96568404     0.08100
H1943       H  0.96610266  0.76466531  0.93614260     0.07100
H1944       H  0.03949610  0.85875103  0.94281175     0.02000
H1945       H  0.01175687  0.87041029  0.93104480     0.02500
H1946       H  0.03275804  0.85463283  0.91339231     0.06000
H1947       H  0.93821205  0.87108869  0.96961547     0.05000
H1948       H  0.94686185  0.84210301  0.97391831    -0.00800
H1949       H  0.95516698  0.85609549  0.94795378     0.00700
H1950       H  0.05132676  0.87492438  0.01664530     0.04300
H1951       H  0.04430171  0.90413045  0.01184985     0.06300
H1952       H  0.05670312  0.88720712  0.98925046     0.07100
C1953       C  0.16638508  0.10552639  0.99326846    -0.22500
C1954       C  0.16313526  0.09159029  0.01203993     0.09500
C1955       C  0.17961322  0.09214660  0.03021349     0.09900
C1956       C  0.19856838  0.10723876  0.02951241    -0.17400
C1957       C  0.20136337  0.12183696  0.01111678    -0.27800
C1958       C  0.18521856  0.12073970  0.99257780     0.18200
C1959       C  0.14165718  0.07739746  0.01269474     0.12200
C1960       C  0.17669898  0.07740706  0.05065642    -0.12200
H1961       H  0.21089785  0.10817988  0.04373076     0.12500
C1962       C  0.18652690  0.13586120  0.97227224    -0.23000
H1963       H  0.15366992  0.10498350  0.97932275     0.08100
C1964       C  0.11868273  0.08690057  0.01776328     0.04500
C1965       C  0.09864865  0.07310271  0.01717807    -0.20200
C1966       C  0.10095804  0.04996692  0.01160220    -0.12500
C1967       C  0.12419173  0.04031554  0.00733817     0.13200
C1968       C  0.14423758  0.05422634  0.00784779    -0.23000
C1969       C  0.11531940  0.11157993  0.02391836    -0.06000
H1970       H  0.08096446  0.08057391  0.02067721     0.14700
C1971       C  0.12815654  0.01536571  0.00291604    -0.16200
H1972       H  0.16203446  0.04705953  0.00428935     0.09000
H1973       H  0.16971339  0.14640104  0.97107161     0.06900
H1974       H  0.18855628  0.12538694  0.95658472     0.08100
H1975       H  0.20181857  0.14721798  0.97305658     0.07100
H1976       H  0.17782971  0.05934179  0.04540572     0.02000
H1977       H  0.15895047  0.08115048  0.05874326     0.02500
H1978       H  0.19091469  0.08027070  0.06352736     0.06000
H1979       H  0.09622942  0.11612106  0.02784784     0.05000
H1980       H  0.12102638  0.12216849  0.00956356    -0.00800
H1981       H  0.12626890  0.11554438  0.03913472     0.00700
H1982       H  0.11968574  0.01050595  0.98660713     0.04300
H1983       H  0.12036556  0.00564072  0.01701938     0.06300
H1984       H  0.14760093  0.01061937  0.00168678     0.07100
C1985       C  0.08458024  0.01533814  0.12707236    -0.22500
C1986       C  0.07368468  0.00432427  0.14520042     0.09500
C1987       C  0.05446684  0.98990019  0.14056648     0.09900
C1988       C  0.04616034  0.98731631  0.11807222    -0.17400
C1989       C  0.05662184  0.99878829  0.09993416    -0.27800
C1990       C  0.07658416  0.01254752  0.10453081     0.18200
C1991       C  0.08288938  0.00787264  0.16883161     0.12200
C1992       C  0.04276829  0.97719298  0.15940937    -0.12200
H1993       H  0.03091840  0.97679223  0.11473240     0.12500
C1994       C  0.09042829  0.02400671  0.08609925    -0.23000
H1995       H  0.09963458  0.02607543  0.13052224     0.08100
C1996       C  0.10422890  0.99692411  0.17651835     0.04500
C1997       C  0.11213230  0.00064247  0.19893523    -0.20200
C1998       C  0.09933770  0.01515447  0.21405698    -0.12500
C1999       C  0.07844026  0.02687310  0.20598466     0.13200
C2000       C  0.07024920  0.02267376  0.18370891    -0.23000
C2001       C  0.11847067  0.98099523  0.16115399    -0.06000
H2002       H  0.12832398  0.99188222  0.20475849     0.14700
C2003       C  0.06510441  0.04489149  0.21972874    -0.16200
H2004       H  0.05416312  0.03150182  0.17767089     0.09000
H2005       H  0.10977640  0.01893163  0.08733427     0.06900
H2006       H  0.08855516  0.04262776  0.08830648     0.08100
H2007       H  0.08453476  0.01939197  0.06873628     0.07100
H2008       H  0.03486585  0.98927907  0.17211060     0.02000
H2009       H  0.05640945  0.96607183  0.16785086     0.02500
H2010       H  0.02816665  0.96647109  0.15294778     0.06000
H2011       H  0.13440109  0.97343324  0.16993349     0.05000
H2012       H  0.12493627  0.99021570  0.14612741    -0.00800
H2013       H  0.10694646  0.96705921  0.15539295     0.00700
H2014       H  0.06330587  0.06056173  0.20959516     0.04300
H2015       H  0.07450333  0.04958267  0.23557861     0.06300
H2016       H  0.04686575  0.03909049  0.22398918     0.07100
C2017       C  0.97634499  0.33170439  0.06303378    -0.22500
C2018       C  0.99905507  0.33849206  0.05600587     0.09500
C2019       C  0.01967158  0.32484855  0.06042597     0.09900
C2020       C  0.01695233  0.30407379  0.07106770    -0.17400
C2021       C  0.99418224  0.29705353  0.07770773    -0.27800
C2022       C  0.97361498  0.31104761  0.07388231     0.18200
C2023       C  0.00065644  0.36007850  0.04410084     0.12200
C2024       C  0.04436960  0.33208625  0.05364303    -0.12200
H2025       H  0.03255663  0.29300840  0.07375463     0.12500
C2026       C  0.94860077  0.30451988  0.08045183    -0.23000
H2027       H  0.96062930  0.34246403  0.05971586     0.08100
C2028       C  0.99662961  0.36163083  0.02051311     0.04500
C2029       C  0.99611293  0.38297374  0.01036833    -0.20200
C2030       C  0.99949524  0.40257861  0.02345843    -0.12500
C2031       C  0.00530029  0.40066172  0.04683269     0.13200
C2032       C  0.00532134  0.37942493  0.05691816    -0.23000
C2033       C  0.99232980  0.34082972  0.00629235    -0.06000
H2034       H  0.99196187  0.38445030  0.99244438     0.14700
C2035       C  0.01204384  0.42047144  0.06161792    -0.16200
H2036       H  0.00893485  0.37792650  0.07495662     0.09000
H2037       H  0.93705575  0.30403416  0.06508354     0.06900
H2038       H  0.94084262  0.31721150  0.09264307     0.08100
H2039       H  0.94820169  0.28776087  0.08849432     0.07100
H2040       H  0.04851181  0.34818434  0.06244985     0.02000
H2041       H  0.04508250  0.33459384  0.03499711     0.02500
H2042       H  0.05849273  0.31926645  0.05822990     0.06000
H2043       H  0.98970698  0.34499684  0.98809552     0.05000
H2044       H  0.97598763  0.33243620  0.01238976    -0.00800
H2045       H  0.00802921  0.32886872  0.00760320     0.00700
H2046       H  0.99824730  0.42334169  0.07507761     0.04300
H2047       H  0.01407796  0.43629288  0.05203798     0.06300
H2048       H  0.02966555  0.41669092  0.06982356     0.07100
C2049       C  0.06034156  0.24696326  0.16188881    -0.22500
C2050       C  0.07363093  0.26633891  0.15857365     0.09500
C2051       C  0.06742394  0.28128962  0.14089196     0.09900
C2052       C  0.04782592  0.27644198  0.12687530    -0.17400
C2053       C  0.03468310  0.25686911  0.12999794    -0.27800
C2054       C  0.04070331  0.24216554  0.14804341     0.18200
C2055       C  0.09479011  0.26967213  0.17313835     0.12200
C2056       C  0.08141973  0.30226275  0.13685106    -0.12200
H2057       H  0.04296503  0.28778253  0.11321593     0.12500
C2058       C  0.02638299  0.22181193  0.15380757    -0.23000
H2059       H  0.06528477  0.23554294  0.17551206     0.08100
C2060       C  0.09248339  0.27630690  0.19615807     0.04500
C2061       C  0.11313932  0.27694695  0.20977835    -0.20200
C2062       C  0.13580276  0.27046741  0.20094779    -0.12500
C2063       C  0.13806346  0.26436100  0.17767263     0.13200
C2064       C  0.11747781  0.26415237  0.16407194    -0.23000
C2065       C  0.06827658  0.28259356  0.20629721    -0.06000
H2066       H  0.11152856  0.28195322  0.22750400     0.14700
C2067       C  0.16209415  0.25844108  0.16686981    -0.16200
H2068       H  0.11894969  0.25904724  0.14636106     0.09000
H2069       H  0.02061840  0.22298621  0.17186861     0.06900
H2070       H  0.03768294  0.20620021  0.15129718     0.08100
H2071       H  0.00987703  0.22051929  0.14351887     0.07100
H2072       H  0.10041005  0.29758351  0.13269686     0.02000
H2073       H  0.08088536  0.31313769  0.15234505     0.02500
H2074       H  0.07387536  0.31224026  0.12250813     0.06000
H2075       H  0.06979499  0.28792718  0.22438028     0.05000
H2076       H  0.05638936  0.26788804  0.20549839    -0.00800
H2077       H  0.05985989  0.29680323  0.19670419     0.00700
H2078       H  0.16959893  0.24240693  0.17387670     0.04300
H2079       H  0.17475009  0.27224807  0.17010603     0.06300
H2080       H  0.16056019  0.25601439  0.14819630     0.07100
C2081       C  0.97426707  0.14025328  0.02155572    -0.22500
C2082       C  0.99554224  0.15089368  0.02747052     0.09500
C2083       C  0.01787421  0.13944624  0.02423130     0.09900
C2084       C  0.01835079  0.11682784  0.01690949    -0.17400
C2085       C  0.99697591  0.10542891  0.01272592    -0.27800
C2086       C  0.97459623  0.11756176  0.01432810     0.18200
C2087       C  0.99391728  0.17204142  0.04100540     0.12200
C2088       C  0.04111369  0.15091399  0.02934326    -0.12200
H2089       H  0.03548122  0.10767891  0.01536091     0.12500
C2090       C  0.95059100  0.10700894  0.01037200    -0.23000
H2091       H  0.95716197  0.14922360  0.02414421     0.08100
C2092       C  0.99208454  0.19343562  0.03109367     0.04500
C2093       C  0.99141717  0.21273598  0.04516381    -0.20200
C2094       C  0.99282726  0.21135506  0.06919410    -0.12500
C2095       C  0.99414708  0.18931405  0.07885441     0.13200
C2096       C  0.99469148  0.17022223  0.06460379    -0.23000
C2097       C  0.99101238  0.19588334  0.00565451    -0.06000
H2098       H  0.98963105  0.22864380  0.03670448     0.14700
C2099       C  0.99515991  0.18454407  0.10399107    -0.16200
H2100       H  0.99593527  0.15353028  0.07202978     0.09000
H2101       H  0.94118821  0.11572729  0.99616124     0.06900
H2102       H  0.93938565  0.10901470  0.02593512     0.08100
H2103       H  0.95186873  0.08876638  0.00629497     0.07100
H2104       H  0.04173589  0.15598418  0.04754074     0.02000
H2105       H  0.04247307  0.16619048  0.01870281     0.02500
H2106       H  0.05699232  0.13962690  0.02570686     0.06000
H2107       H  0.98963765  0.21388397  0.00054420     0.05000
H2108       H  0.97505508  0.18722547  0.99889672    -0.00800
H2109       H  0.00753105  0.18818702  0.99783014     0.00700
H2110       H  0.98010888  0.17357947  0.10862783     0.04300
H2111       H  0.99361584  0.19959900  0.11501160     0.06300
H2112       H  0.01242743  0.17554266  0.10801733     0.07100
C2113       C  0.97788505  0.36772807  0.54458947    -0.22500
C2114       C  0.99724150  0.36040865  0.55817361     0.09500
C2115       C  0.01651006  0.37486982  0.56199727     0.09900
C2116       C  0.01569602  0.39656473  0.55265523    -0.17400
C2117       C  0.99606668  0.40437146  0.53939004    -0.27800
C2118       C  0.97703205  0.38946042  0.53506311     0.18200
C2119       C  0.99600143  0.33850920  0.57014405     0.12200
C2120       C  0.03769710  0.36760672  0.57643666    -0.12200
H2121       H  0.03045075  0.40763089  0.55613871     0.12500
C2122       C  0.95596127  0.39597195  0.52018965    -0.23000
H2123       H  0.96314484  0.35646266  0.54179026     0.08100
C2124       C  0.98238886  0.33684457  0.59014435     0.04500
C2125       C  0.98303673  0.31658602  0.60219977    -0.20200
C2126       C  0.99653747  0.29725243  0.59468956    -0.12500
C2127       C  0.01149551  0.29967729  0.57516913     0.13200
C2128       C  0.01039329  0.31997759  0.56289222    -0.23000
C2129       C  0.96765568  0.35678638  0.59924181    -0.06000
H2130       H  0.97357622  0.31670265  0.61815807     0.14700
C2131       C  0.02965907  0.28192789  0.56697406    -0.16200
H2132       H  0.02158648  0.32167379  0.54794497     0.09000
H2133       H  0.94531372  0.41009144  0.52818213     0.06900
H2134       H  0.94366705  0.38172901  0.51765644     0.08100
H2135       H  0.96249296  0.40101253  0.50320625     0.07100
H2136       H  0.04695152  0.35254521  0.56865091     0.02000
H2137       H  0.03145301  0.36336087  0.59375154     0.02500
H2138       H  0.05102919  0.38112167  0.57807193     0.06000
H2139       H  0.95837164  0.35282112  0.61536358     0.05000
H2140       H  0.95369527  0.36187362  0.58668228    -0.00800
H2141       H  0.97950785  0.37121097  0.60256687     0.00700
H2142       H  0.03171703  0.26721343  0.57820640     0.04300
H2143       H  0.04766331  0.28948403  0.56596292     0.06300
H2144       H  0.02455924  0.27587733  0.54977020     0.07100
C2145       C  0.00065656  0.17958957  0.57112871    -0.22500
C2146       C  0.98367773  0.16597020  0.58142802     0.09500
C2147       C  0.96908678  0.17500059  0.59910923     0.09900
C2148       C  0.97196808  0.19745456  0.60626675    -0.17400
C2149       C  0.98916480  0.21111037  0.59622359    -0.27800
C2150       C  0.00374144  0.20202491  0.57840013     0.18200
C2151       C  0.98271687  0.14185430  0.57445413     0.12200
C2152       C  0.95084539  0.16077966  0.61071213    -0.12200
H2153       H  0.96101534  0.20424554  0.62010054     0.12500
C2154       C  0.02352643  0.21530474  0.56792159    -0.23000
H2155       H  0.01198558  0.17238451  0.55773520     0.08100
C2156       C  0.96833374  0.13472468  0.55615365     0.04500
C2157       C  0.96901274  0.11182394  0.54959482    -0.20200
C2158       C  0.98423529  0.09603804  0.56050867    -0.12500
C2159       C  0.99817959  0.10310414  0.57925836     0.13200
C2160       C  0.99717935  0.12594393  0.58600870    -0.23000
C2161       C  0.95286444  0.15137863  0.54313301    -0.06000
H2162       H  0.95851205  0.10640178  0.53512246     0.14700
C2163       C  0.01410628  0.08705582  0.59259297    -0.16200
H2164       H  0.00805434  0.13147381  0.60019022     0.09000
H2165       H  0.01581383  0.22988356  0.55847901     0.06900
H2166       H  0.03439105  0.20486964  0.55566280     0.08100
H2167       H  0.03580887  0.22137131  0.58139104     0.07100
H2168       H  0.96006150  0.14604377  0.61879513     0.02000
H2169       H  0.93767453  0.15465034  0.59808121     0.02500
H2170       H  0.94078778  0.17049237  0.62410637     0.06000
H2171       H  0.94286200  0.14300161  0.52922150     0.05000
H2172       H  0.96432071  0.16431484  0.53547592    -0.00800
H2173       H  0.93957686  0.15983053  0.55473543     0.00700
H2174       H  0.03308791  0.09221834  0.59133063     0.04300
H2175       H  0.01305137  0.06930667  0.58658113     0.06300
H2176       H  0.00858046  0.08762934  0.61073854     0.07100
C2177       C  0.11150890  0.21440404  0.69788067    -0.22500
C2178       C  0.10920478  0.22470127  0.67660781     0.09500
C2179       C  0.13000918  0.23138744  0.66503874     0.09900
C2180       C  0.15261374  0.22804089  0.67521105    -0.17400
C2181       C  0.15494220  0.21852899  0.69684916    -0.27800
C2182       C  0.13413185  0.21142871  0.70829635     0.18200
C2183       C  0.08483786  0.23013100  0.66750536     0.12200
C2184       C  0.12827719  0.24284545  0.64234539    -0.12200
H2185       H  0.16851538  0.23389867  0.66671568     0.12500
C2186       C  0.13490871  0.20197061  0.73196701    -0.23000
H2187       H  0.09545422  0.20953685  0.70682832     0.08100
C2188       C  0.07263598  0.21498570  0.65325649     0.04500
C2189       C  0.05055995  0.22188751  0.64344135    -0.20200
C2190       C  0.04041009  0.24356102  0.64773485    -0.12500
C2191       C  0.05193547  0.25808009  0.66334082     0.13200
C2192       C  0.07418703  0.25131618  0.67266913    -0.23000
C2193       C  0.08321055  0.19177489  0.64813018    -0.06000
H2194       H  0.04165773  0.21064781  0.63170608     0.14700
C2195       C  0.04110738  0.28056008  0.67101197    -0.16200
H2196       H  0.08338360  0.26271684  0.68403884     0.09000
H2197       H  0.12736576  0.18482294  0.73178930     0.06900
H2198       H  0.12389046  0.21305838  0.74352513     0.08100
H2199       H  0.15333736  0.20060175  0.73904721     0.07100
H2200       H  0.11718570  0.25869792  0.64395472     0.02000
H2201       H  0.11984757  0.23145840  0.62976109     0.02500
H2202       H  0.14626232  0.24725014  0.63579513     0.06000
H2203       H  0.07136969  0.18195592  0.63677879     0.05000
H2204       H  0.08565005  0.18231848  0.66419263    -0.00800
H2205       H  0.10094436  0.19317390  0.63966854     0.00700
H2206       H  0.02270810  0.28385908  0.66441353     0.04300
H2207       H  0.03978452  0.28094444  0.68984044     0.06300
H2208       H  0.05279362  0.29435979  0.66551284     0.07100
C2209       C  0.23380421  0.34631935  0.59398086    -0.22500
C2210       C  0.23790451  0.32307750  0.59582090     0.09500
C2211       C  0.24311952  0.30996216  0.57629535     0.09900
C2212       C  0.24402983  0.32047715  0.55511855    -0.17400
C2213       C  0.23972948  0.34401070  0.55275066    -0.27800
C2214       C  0.23502222  0.35714463  0.57295291     0.18200
C2215       C  0.23804912  0.31298480  0.61863575     0.12200
C2216       C  0.24841506  0.28489445  0.57793954    -0.12200
H2217       H  0.24932475  0.30999930  0.54080824     0.12500
C2218       C  0.23198693  0.38265992  0.57326597    -0.23000
H2219       H  0.23013370  0.35612503  0.60933541     0.08100
C2220       C  0.25853866  0.31384326  0.63265177     0.04500
C2221       C  0.25848804  0.30276236  0.65354655    -0.20200
C2222       C  0.23832445  0.29104143  0.66083695    -0.12500
C2223       C  0.21741545  0.29100931  0.64709084     0.13200
C2224       C  0.21762458  0.30194602  0.62606225    -0.23000
C2225       C  0.28059421  0.32604478  0.62532147    -0.06000
H2226       H  0.27441138  0.30301319  0.66415672     0.14700
C2227       C  0.19528015  0.27865366  0.65389020    -0.16200
H2228       H  0.20195829  0.30156928  0.61512908     0.09000
H2229       H  0.24727744  0.39067966  0.56481736     0.06900
H2230       H  0.23129989  0.38956219  0.59089062     0.08100
H2231       H  0.21482794  0.38812175  0.56528003     0.07100
H2232       H  0.23254304  0.27644711  0.58498620     0.02000
H2233       H  0.26411185  0.28175473  0.58924545     0.02500
H2234       H  0.25263161  0.27709982  0.56109299     0.06000
H2235       H  0.29516213  0.32477396  0.63818430     0.05000
H2236       H  0.27598242  0.34422843  0.62285817    -0.00800
H2237       H  0.28757364  0.31864283  0.60910811     0.00700
H2238       H  0.18738098  0.28637603  0.66957463     0.04300
H2239       H  0.20008938  0.26059647  0.65685980     0.06300
H2240       H  0.18121966  0.27942742  0.64050367     0.07100
C2241       C  0.27721876  0.19086813  0.88607942    -0.22500
C2242       C  0.25873755  0.17752418  0.89417523     0.09500
C2243       C  0.24241333  0.16799245  0.87872682     0.09900
C2244       C  0.24349717  0.17382657  0.85575617    -0.17400
C2245       C  0.26089595  0.18851525  0.84788752    -0.27800
C2246       C  0.27874500  0.19617027  0.86294648     0.18200
C2247       C  0.25564611  0.17501001  0.91897404     0.12200
C2248       C  0.22364814  0.15197699  0.88656132    -0.12200
H2249       H  0.23014910  0.16760557  0.84401715     0.12500
C2250       C  0.29854762  0.21091973  0.85493815    -0.23000
H2251       H  0.28991969  0.19781761  0.89803091     0.08100
C2252       C  0.27075106  0.16049850  0.93174929     0.04500
C2253       C  0.26603446  0.15782602  0.95494760    -0.20200
C2254       C  0.24698850  0.16981167  0.96582364    -0.12500
C2255       C  0.23220102  0.18487377  0.95303147     0.13200
C2256       C  0.23671147  0.18713398  0.92971616    -0.23000
C2257       C  0.29150819  0.14752717  0.92081994    -0.06000
H2258       H  0.27729220  0.14621123  0.96463805     0.14700
C2259       C  0.21117717  0.19805429  0.96337624    -0.16200
H2260       H  0.22530968  0.19835077  0.91967678     0.09000
H2261       H  0.31057623  0.21578492  0.86910494     0.06900
H2262       H  0.29064522  0.22654817  0.84739914     0.08100
H2263       H  0.30968959  0.20168906  0.84198569     0.07100
H2264       H  0.21112453  0.16066752  0.89871956     0.02000
H2265       H  0.23255980  0.13728480  0.89501265     0.02500
H2266       H  0.21288099  0.14551451  0.87213208     0.06000
H2267       H  0.30123652  0.13657532  0.93319962     0.05000
H2268       H  0.30452850  0.15946407  0.91379645    -0.00800
H2269       H  0.28479138  0.13662851  0.90687781     0.00700
H2270       H  0.21765371  0.21137576  0.97500076     0.04300
H2271       H  0.19928972  0.18670101  0.97275941     0.06300
H2272       H  0.20010078  0.20669056  0.95018951     0.07100
C2273       C  0.49820262  0.36195996  0.97040321    -0.22500
C2274       C  0.49749288  0.35830388  0.94683809     0.09500
C2275       C  0.49746706  0.37683125  0.93205843     0.09900
C2276       C  0.49875964  0.39869331  0.94116751    -0.17400
C2277       C  0.49995395  0.40253022  0.96476477    -0.27800
C2278       C  0.49934283  0.38390298  0.97962139     0.18200
C2279       C  0.49681869  0.33493151  0.93783312     0.12200
C2280       C  0.49654290  0.37347173  0.90665462    -0.12200
H2281       H  0.49899105  0.41291539  0.92973109     0.12500
C2282       C  0.50072833  0.38687746  0.00504779    -0.23000
H2283       H  0.49805418  0.34753466  0.98157758     0.08100
C2284       C  0.51774815  0.32091465  0.93655004     0.04500
C2285       C  0.51616674  0.29900535  0.92747052    -0.20200
C2286       C  0.49424674  0.29099391  0.91929264    -0.12500
C2287       C  0.47317299  0.30486955  0.92130960     0.13200
C2288       C  0.47483343  0.32681827  0.93019781    -0.23000
C2289       C  0.54167050  0.32909171  0.94472160    -0.06000
H2290       H  0.53201834  0.28787910  0.92720040     0.14700
C2291       C  0.44850482  0.29683328  0.91539382    -0.16200
H2292       H  0.45874871  0.33757755  0.93161025     0.09000
H2293       H  0.50143364  0.37038125  0.01385843     0.06900
H2294       H  0.48457007  0.39649804  0.01133522     0.08100
H2295       H  0.51719134  0.39603433  0.00966598     0.07100
H2296       H  0.47959640  0.36523341  0.90183220     0.02000
H2297       H  0.51211060  0.36263512  0.90097944     0.02500
H2298       H  0.49718845  0.38976410  0.89753680     0.06000
H2299       H  0.55627117  0.31608474  0.94214135     0.05000
H2300       H  0.54065657  0.33325681  0.96313844    -0.00800
H2301       H  0.54647834  0.34441785  0.93522904     0.00700
H2302       H  0.43664214  0.29855033  0.93054077     0.04300
H2303       H  0.44858238  0.27889727  0.90994721     0.06300
H2304       H  0.44072736  0.30735467  0.90156829     0.07100
C2305       C  0.51381514  0.18890742  0.96854296    -0.22500
C2306       C  0.49541571  0.17352324  0.96986291     0.09500
C2307       C  0.47451968  0.17670516  0.95672073     0.09900
C2308       C  0.47305018  0.19465331  0.94146522    -0.17400
C2309       C  0.49237774  0.20926877  0.93833801    -0.27800
C2310       C  0.51268971  0.20678428  0.95314463     0.18200
C2311       C  0.49953508  0.15247125  0.98256767     0.12200
C2312       C  0.45414622  0.16049139  0.95807877    -0.12200
H2313       H  0.45669377  0.19650566  0.93188988     0.12500
C2314       C  0.53415070  0.22188080  0.95321037    -0.23000
H2315       H  0.52972313  0.18634512  0.97897234     0.08100
C2316       C  0.51243631  0.13416739  0.97235242     0.04500
C2317       C  0.51186447  0.11295825  0.98240047    -0.20200
C2318       C  0.49874954  0.10968351  0.00236582    -0.12500
C2319       C  0.48681544  0.12822177  0.01327260     0.13200
C2320       C  0.48764209  0.14959683  0.00330684    -0.23000
C2321       C  0.52586112  0.13676398  0.95030163    -0.06000
H2322       H  0.52087716  0.09858058  0.97412038     0.14700
C2323       C  0.47177938  0.12582743  0.03437398    -0.16200
H2324       H  0.47768821  0.16377327  0.01095109     0.09000
H2325       H  0.55064519  0.21161724  0.94901360     0.06900
H2326       H  0.53627368  0.22939538  0.97043707     0.08100
H2327       H  0.53311424  0.23601088  0.94119821     0.07100
H2328       H  0.44685219  0.16041146  0.97563596     0.02000
H2329       H  0.46074503  0.14317199  0.95335697     0.02500
H2330       H  0.43916250  0.16522029  0.94643713     0.06000
H2331       H  0.53453938  0.12056180  0.94448481     0.05000
H2332       H  0.54017395  0.14925329  0.95257610    -0.00800
H2333       H  0.51327936  0.14264713  0.93682006     0.00700
H2334       H  0.47925360  0.13629657  0.04828478     0.04300
H2335       H  0.47110897  0.10817732  0.04033096     0.06300
H2336       H  0.45302502  0.13180756  0.03091546     0.07100
C2337       C  0.42050249  0.22994759  0.84507835    -0.22500
C2338       C  0.41094173  0.25168184  0.84102043     0.09500
C2339       C  0.42331432  0.27062252  0.84905581     0.09900
C2340       C  0.44412570  0.26732536  0.86233962    -0.17400
C2341       C  0.45280643  0.24550763  0.86779513    -0.27800
C2342       C  0.44173196  0.22662635  0.85758688     0.18200
C2343       C  0.38768460  0.25395713  0.82875206     0.12200
C2344       C  0.41451168  0.29425347  0.84363877    -0.12200
H2345       H  0.45312466  0.28188382  0.86908369     0.12500
C2346       C  0.45223319  0.20286001  0.85863017    -0.23000
H2347       H  0.41141366  0.21542041  0.83823118     0.08100
C2348       C  0.38584711  0.24888266  0.80534314     0.04500
C2349       C  0.36302955  0.24872021  0.79516165    -0.20200
C2350       C  0.34206908  0.25380236  0.80776959    -0.12500
C2351       C  0.34399810  0.25992852  0.83095592     0.13200
C2352       C  0.36681221  0.25981088  0.84117437    -0.23000
C2353       C  0.40791773  0.24361763  0.79114794    -0.06000
H2354       H  0.36146220  0.24416647  0.77733666     0.14700
C2355       C  0.32246600  0.26596245  0.84559320    -0.16200
H2356       H  0.36827581  0.26368829  0.85916065     0.09000
H2357       H  0.45384635  0.19572022  0.84114384     0.06900
H2358       H  0.44020834  0.19213432  0.86866568     0.08100
H2359       H  0.47056597  0.20204518  0.86598844     0.07100
H2360       H  0.39625095  0.29743009  0.85082527     0.02000
H2361       H  0.41384026  0.29637458  0.82492452     0.02500
H2362       H  0.42654317  0.30714437  0.85082858     0.06000
H2363       H  0.40330283  0.24083982  0.77299327     0.05000
H2364       H  0.41731188  0.22808178  0.79734520    -0.00800
H2365       H  0.42030667  0.25795036  0.79221037     0.00700
H2366       H  0.32207464  0.25450430  0.86036025     0.04300
H2367       H  0.30517228  0.26473005  0.83642055     0.06300
H2368       H  0.32388739  0.28356746  0.85201600     0.07100
C2369       C  0.55400121  0.99721014  0.32970849    -0.22500
C2370       C  0.55966917  0.00961993  0.34931854     0.09500
C2371       C  0.58090996  0.02199837  0.34943181     0.09900
C2372       C  0.59499591  0.02300902  0.32962139    -0.17400
C2373       C  0.58894329  0.01164158  0.30922957    -0.27800
C2374       C  0.56887800  0.99708477  0.31017804     0.18200
C2375       C  0.54406662  0.00866562  0.37008547     0.12200
C2376       C  0.58920414  0.03365580  0.37080902    -0.12200
H2377       H  0.61153852  0.03200865  0.33076807     0.12500
C2378       C  0.56305213  0.98010045  0.29182589    -0.23000
H2379       H  0.53834456  0.98673752  0.32998081     0.08100
C2380       C  0.52682259  0.02598540  0.37536397     0.04500
C2381       C  0.51476818  0.02603960  0.39649329    -0.20200
C2382       C  0.51914141  0.00893795  0.41246284    -0.12500
C2383       C  0.53574236  0.99105245  0.40673782     0.13200
C2384       C  0.54796490  0.99119410  0.38571343    -0.23000
C2385       C  0.52147379  0.04466198  0.35880320    -0.06000
H2386       H  0.50236242  0.03989313  0.40086509     0.14700
C2387       C  0.54180602  0.97201037  0.42271595    -0.16200
H2388       H  0.56123260  0.97791031  0.38179081     0.09000
H2389       H  0.54599108  0.98528788  0.28329706     0.06900
H2390       H  0.56074089  0.96329020  0.29959323     0.08100
H2391       H  0.57741352  0.97754129  0.27900564     0.07100
H2392       H  0.59204197  0.02101833  0.38441921     0.02000
H2393       H  0.57549086  0.04649346  0.37651082     0.02500
H2394       H  0.60640547  0.04233238  0.36821271     0.06000
H2395       H  0.50747079  0.05680773  0.36541341     0.05000
H2396       H  0.51490510  0.03734408  0.34259004    -0.00800
H2397       H  0.53798443  0.05413506  0.35541710     0.00700
H2398       H  0.53849112  0.95560111  0.41413207     0.04300
H2399       H  0.53090407  0.97272077  0.43843850     0.06300
H2400       H  0.56109898  0.97251763  0.42750389     0.07100
C2401       C  0.58272017  0.00039602  0.13732776    -0.22500
C2402       C  0.57201441  0.01380933  0.15452680     0.09500
C2403       C  0.55174908  0.02775672  0.14936744     0.09900
C2404       C  0.54208613  0.02732351  0.12728743    -0.17400
C2405       C  0.55225557  0.01332298  0.11011684    -0.27800
C2406       C  0.57323051  0.00001605  0.11517234     0.18200
C2407       C  0.58237296  0.01305095  0.17782445     0.12200
C2408       C  0.54018289  0.04290972  0.16725572    -0.12200
H2409       H  0.52617179  0.03764419  0.12354990     0.12500
C2410       C  0.58624707  0.98593685  0.09722820    -0.23000
H2411       H  0.59857344  0.99009566  0.14133516     0.08100
C2412       C  0.57677283  0.99580968  0.19316111     0.04500
C2413       C  0.58629989  0.99629746  0.21529601    -0.20200
C2414       C  0.60125551  0.01367886  0.22253578    -0.12500
C2415       C  0.60712864  0.03076263  0.20694893     0.13200
C2416       C  0.59768525  0.03013794  0.18479338    -0.23000
C2417       C  0.56032146  0.97719186  0.18629115    -0.06000
H2418       H  0.58186130  0.98315606  0.22713406     0.14700
C2419       C  0.62213622  0.05042956  0.21377153    -0.16200
H2420       H  0.60187034  0.04331332  0.17290498     0.09000
H2421       H  0.57494333  0.97187140  0.09146391     0.06900
H2422       H  0.60333586  0.97829939  0.10377576     0.08100
H2423       H  0.59072301  0.99668060  0.08256129     0.07100
H2424       H  0.55335914  0.05523672  0.17351849     0.02000
H2425       H  0.53407923  0.03261102  0.18169013     0.02500
H2426       H  0.52435748  0.05255661  0.16049656     0.06000
H2427       H  0.55755163  0.96520363  0.20036882     0.05000
H2428       H  0.56817700  0.96754144  0.17165528    -0.00800
H2429       H  0.54250142  0.98455562  0.18136055     0.00700
H2430       H  0.64068332  0.04456178  0.21794986     0.04300
H2431       H  0.61369620  0.05927204  0.22858337     0.06300
H2432       H  0.62351143  0.06288220  0.19989292     0.07100
C2433       C  0.68754404  0.07572929  0.25469836    -0.22500
C2434       C  0.67460071  0.09641325  0.25610551     0.09500
C2435       C  0.64987308  0.09652877  0.26133435     0.09900
C2436       C  0.63875224  0.07607784  0.26557965    -0.17400
C2437       C  0.65157601  0.05521343  0.26465924    -0.27800
C2438       C  0.67640582  0.05509325  0.25887805     0.18200
C2439       C  0.68716042  0.11802533  0.25317749     0.12200
C2440       C  0.63522257  0.11834366  0.26270087    -0.12200
H2441       H  0.61968841  0.07639270  0.26946518     0.12500
C2442       C  0.69207580  0.03392629  0.25773496    -0.23000
H2443       H  0.70659552  0.07572946  0.25074531     0.08100
C2444       C  0.69791417  0.12894676  0.27179789     0.04500
C2445       C  0.70655902  0.15080522  0.26921304    -0.20200
C2446       C  0.70488171  0.16221101  0.24837556    -0.12500
C2447       C  0.69497022  0.15071094  0.22937026     0.13200
C2448       C  0.68614556  0.12883439  0.23212348    -0.23000
C2449       C  0.69975238  0.11770008  0.29458785    -0.06000
H2450       H  0.71451990  0.15911717  0.28373993     0.14700
C2451       C  0.69267331  0.16148810  0.20636664    -0.16200
H2452       H  0.67776517  0.12030593  0.21793274     0.09000
H2453       H  0.70737069  0.03547951  0.26971264     0.06900
H2454       H  0.69928558  0.03157519  0.24023902     0.08100
H2455       H  0.68249505  0.01862504  0.26233588     0.07100
H2456       H  0.63570080  0.12701994  0.24609341     0.02000
H2457       H  0.64269516  0.12952836  0.27603163     0.02500
H2458       H  0.61610888  0.11544617  0.26696490     0.06000
H2459       H  0.70854703  0.12859102  0.30741496     0.05000
H2460       H  0.71056104  0.10168318  0.29294859    -0.00800
H2461       H  0.68150467  0.11394730  0.30091155     0.00700
H2462       H  0.71078243  0.16472810  0.19940526     0.04300
H2463       H  0.68195761  0.17757005  0.20780580     0.06300
H2464       H  0.68348719  0.15040499  0.19396751     0.07100
C2465       C  0.61323897  0.27836267  0.31944069    -0.22500
C2466       C  0.59958600  0.25894979  0.32055665     0.09500
C2467       C  0.60862733  0.23850510  0.31077283     0.09900
C2468       C  0.63131349  0.23795365  0.30015214    -0.17400
C2469       C  0.64504628  0.25740983  0.29909895    -0.27800
C2470       C  0.63603690  0.27780012  0.30928508     0.18200
C2471       C  0.57706083  0.25998898  0.33407231     0.12200
C2472       C  0.59441277  0.21729368  0.31170756    -0.12200
H2473       H  0.63817606  0.22240403  0.29230077     0.12500
C2474       C  0.65029387  0.29905534  0.31075867    -0.23000
H2475       H  0.60640284  0.29390809  0.32735144     0.08100
C2476       C  0.57791718  0.25992131  0.35801586     0.04500
C2477       C  0.55640169  0.26008621  0.37036609    -0.20200
C2478       C  0.53396789  0.26034758  0.35942362    -0.12500
C2479       C  0.53303572  0.26099271  0.33544258     0.13200
C2480       C  0.55469371  0.26085379  0.32301008    -0.23000
C2481       C  0.60156058  0.25904385  0.37055325    -0.06000
H2482       H  0.55705486  0.25946828  0.38876239     0.14700
C2483       C  0.50944995  0.26066180  0.32289861    -0.16200
H2484       H  0.55423487  0.26101024  0.30460464     0.09000
H2485       H  0.65137832  0.30470054  0.32878159     0.06900
H2486       H  0.64113688  0.31260568  0.30079598     0.08100
H2487       H  0.66903635  0.29674043  0.30460556     0.07100
H2488       H  0.57693983  0.21999148  0.30288782     0.02000
H2489       H  0.59103750  0.21284225  0.32967948     0.02500
H2490       H  0.60412369  0.20278022  0.30334033     0.06000
H2491       H  0.59893284  0.25839610  0.38923961     0.05000
H2492       H  0.61186035  0.27432555  0.36680521    -0.00800
H2493       H  0.61227002  0.24375393  0.36520920     0.00700
H2494       H  0.49853643  0.27617654  0.32689402     0.04300
H2495       H  0.49936850  0.24558047  0.32780984     0.06300
H2496       H  0.51216519  0.25997477  0.30420761     0.07100
C2497       C  0.87762877  0.28835850  0.17874718    -0.22500
C2498       C  0.88882375  0.26737742  0.17372178     0.09500
C2499       C  0.88004848  0.24758891  0.18336494     0.09900
C2500       C  0.85992111  0.24914404  0.19759498    -0.17400
C2501       C  0.84794535  0.26996473  0.20213449    -0.27800
C2502       C  0.85710048  0.28995793  0.19272707     0.18200
C2503       C  0.90967933  0.26618907  0.15817640     0.12200
C2504       C  0.89168507  0.22473293  0.17833009    -0.12200
H2505       H  0.85295866  0.23376628  0.20452928     0.12500
C2506       C  0.84572494  0.31298305  0.19749237    -0.23000
H2507       H  0.88475944  0.30345134  0.17135072     0.08100
C2508       C  0.90678833  0.26177393  0.13479999     0.04500
C2509       C  0.92723677  0.25809006  0.12118187    -0.20200
C2510       C  0.95055833  0.25848388  0.13039437    -0.12500
C2511       C  0.95331106  0.26341346  0.15390892     0.13200
C2512       C  0.93277527  0.26745790  0.16737117    -0.23000
C2513       C  0.88212270  0.26057081  0.12433894    -0.06000
H2514       H  0.92498473  0.25457325  0.10320860     0.14700
C2515       C  0.97715666  0.26326568  0.16596838    -0.16200
H2516       H  0.93475669  0.27064095  0.18545021     0.09000
H2517       H  0.82750465  0.31424985  0.18986698     0.06900
H2518       H  0.85640340  0.32665746  0.19009434     0.08100
H2519       H  0.84452538  0.31601223  0.21611636     0.07100
H2520       H  0.91079046  0.22455530  0.18378232     0.02000
H2521       H  0.89085281  0.22097883  0.15984083     0.02500
H2522       H  0.88255785  0.21102186  0.18736744     0.06000
H2523       H  0.88309945  0.25721739  0.10575066     0.05000
H2524       H  0.87206682  0.27685267  0.12714479    -0.00800
H2525       H  0.87201182  0.24679487  0.13219623     0.00700
H2526       H  0.98025007  0.28025277  0.17339406     0.04300
H2527       H  0.99236303  0.25860880  0.15482826     0.06300
H2528       H  0.97708360  0.25072348  0.17985744     0.07100
C2529       C  0.92922251  0.52981984  0.31417656    -0.22500
C2530       C  0.92951354  0.51116361  0.32869126     0.09500
C2531       C  0.91922136  0.49104401  0.32101245     0.09900
C2532       C  0.90760677  0.49042194  0.29982691    -0.17400
C2533       C  0.90451121  0.50981805  0.28614315    -0.27800
C2534       C  0.91754695  0.52924626  0.29281674     0.18200
C2535       C  0.94109412  0.51241459  0.35164435     0.12200
C2536       C  0.92029134  0.47010191  0.33537060    -0.12200
H2537       H  0.90118483  0.47432375  0.29421745     0.12500
C2538       C  0.92005166  0.54962710  0.27796809    -0.23000
H2539       H  0.93824816  0.54496041  0.31951432     0.08100
C2540       C  0.96581959  0.50723666  0.35476331     0.04500
C2541       C  0.97534194  0.50588858  0.37694652    -0.20200
C2542       C  0.96073413  0.50937926  0.39632928    -0.12500
C2543       C  0.93577841  0.51427977  0.39309546     0.13200
C2544       C  0.92650516  0.51618165  0.37087446    -0.23000
C2545       C  0.98203680  0.50267169  0.33462346    -0.06000
H2546       H  0.99434710  0.50191612  0.37917141     0.14700
C2547       C  0.91790444  0.51607733  0.41239767    -0.16200
H2548       H  0.90738921  0.51952142  0.36852064     0.09000
H2549       H  0.93942998  0.55305321  0.27571833     0.06900
H2550       H  0.91104907  0.56459763  0.28618200     0.08100
H2551       H  0.91252013  0.54737051  0.26077459     0.07100
H2552       H  0.91082667  0.47348074  0.35172950     0.02000
H2553       H  0.93931969  0.46508081  0.33882963     0.02500
H2554       H  0.91160955  0.45563975  0.32685518     0.06000
H2555       H  0.00083664  0.49865085  0.33991126     0.05000
H2556       H  0.98212330  0.51779297  0.32364362    -0.00800
H2557       H  0.97548444  0.48809495  0.32461447     0.00700
H2558       H  0.91011142  0.53354925  0.41340439     0.04300
H2559       H  0.92559166  0.51158644  0.42911950     0.06300
H2560       H  0.90314577  0.50422087  0.40921194     0.07100
C2561       C  0.91605230  0.49984142  0.16732240    -0.22500
C2562       C  0.90401496  0.51556875  0.15337409     0.09500
C2563       C  0.88391531  0.52786770  0.16225124     0.09900
C2564       C  0.87734302  0.52525707  0.18522711    -0.17400
C2565       C  0.88970607  0.50985503  0.19950701    -0.27800
C2566       C  0.90873497  0.49628007  0.18992434     0.18200
C2567       C  0.91224747  0.51806886  0.12929800     0.12200
C2568       C  0.86920862  0.54349204  0.14734479    -0.12200
H2569       H  0.86248915  0.53546955  0.19207604     0.12500
C2570       C  0.92086919  0.47696479  0.20236187    -0.23000
H2571       H  0.93089284  0.48972009  0.16026630     0.08100
C2572       C  0.92977546  0.53371340  0.12314250     0.04500
C2573       C  0.93847658  0.53402321  0.10055631    -0.20200
C2574       C  0.92997826  0.51905577  0.08385402    -0.12500
C2575       C  0.91115572  0.50447256  0.08983739     0.13200
C2576       C  0.90291207  0.50394296  0.11244490    -0.23000
C2577       C  0.93967007  0.54969740  0.14060681    -0.06000
H2578       H  0.95273903  0.54528204  0.09620643     0.14700
C2579       C  0.89895649  0.48939971  0.07281311    -0.16200
H2580       H  0.88905609  0.49230742  0.11699250     0.09000
H2581       H  0.94006162  0.48070696  0.20532425     0.06900
H2582       H  0.91991792  0.46131224  0.19185827     0.08100
H2583       H  0.91221185  0.47325703  0.21877765     0.07100
H2584       H  0.86156397  0.53371289  0.13299705     0.02000
H2585       H  0.88068604  0.55681227  0.14046284     0.02500
H2586       H  0.85406376  0.55185304  0.15683645     0.06000
H2587       H  0.95317595  0.56089038  0.13313012     0.05000
H2588       H  0.94844556  0.53995428  0.15448728    -0.00800
H2589       H  0.92485260  0.56052308  0.14785132     0.00700
H2590       H  0.90288049  0.47141417  0.07696718     0.04300
H2591       H  0.90440052  0.49241593  0.05502865     0.06300
H2592       H  0.87919584  0.49264805  0.07361784     0.07100
C2593       C  0.80728323  0.44535144  0.26059523    -0.22500
C2594       C  0.81620411  0.42723521  0.24711430     0.09500
C2595       C  0.83504631  0.43109442  0.23158143     0.09900
C2596       C  0.84527070  0.45255764  0.23066919    -0.17400
C2597       C  0.83712311  0.47036302  0.24488529    -0.27800
C2598       C  0.81752878  0.46683700  0.25965729     0.18200
C2599       C  0.80561595  0.40438097  0.24931509     0.12200
C2600       C  0.84501128  0.41229343  0.21656346    -0.12200
H2601       H  0.86060992  0.45511483  0.21970654     0.12500
C2602       C  0.80757350  0.48575533  0.27453462    -0.23000
H2603       H  0.79252975  0.44254743  0.27217082     0.08100
C2604       C  0.81225543  0.38939768  0.26694175     0.04500
C2605       C  0.80287416  0.36747084  0.26731992    -0.20200
C2606       C  0.78710121  0.35991332  0.25033679    -0.12500
C2607       C  0.77988930  0.37542979  0.23313807     0.13200
C2608       C  0.78921684  0.39728930  0.23290810    -0.23000
C2609       C  0.82961659  0.39642717  0.28511310    -0.06000
H2610       H  0.80837018  0.35597332  0.28067416     0.14700
C2611       C  0.76210001  0.36940625  0.21500625    -0.16200
H2612       H  0.78397717  0.40890046  0.21955365     0.09000
H2613       H  0.79228894  0.48024691  0.28506730     0.06900
H2614       H  0.80098975  0.49983999  0.26369895     0.08100
H2615       H  0.82171681  0.49193738  0.28613044     0.07100
H2616       H  0.83068804  0.40617403  0.20513010     0.02000
H2617       H  0.85183886  0.39810908  0.22718299     0.02500
H2618       H  0.86006825  0.41797071  0.20583204     0.06000
H2619       H  0.83330222  0.38266338  0.29741574     0.05000
H2620       H  0.82200518  0.41128206  0.29463564    -0.00800
H2621       H  0.84693986  0.40095909  0.27723048     0.00700
H2622       H  0.74566034  0.36264042  0.22281224     0.04300
H2623       H  0.77058988  0.35684342  0.20326735     0.06300
H2624       H  0.75655247  0.38428060  0.20469737     0.07100
C2625       C  0.23973852  0.81038307  0.56391189    -0.22500
C2626       C  0.26010210  0.81379791  0.57736946     0.09500
C2627       C  0.27863105  0.82723444  0.56900854     0.09900
C2628       C  0.27538741  0.83856040  0.54827287    -0.17400
C2629       C  0.25456767  0.83588161  0.53515058    -0.27800
C2630       C  0.23667858  0.82114812  0.54291134     0.18200
C2631       C  0.26121708  0.80348305  0.60032347     0.12200
C2632       C  0.30210287  0.82898750  0.58157376    -0.12200
H2633       H  0.28926933  0.84943313  0.54214202     0.12500
C2634       C  0.21351877  0.81719608  0.53033125    -0.23000
H2635       H  0.22572475  0.79973340  0.57019759     0.08100
C2636       C  0.25548759  0.81622665  0.62018148     0.04500
C2637       C  0.25598252  0.80556523  0.64142787    -0.20200
C2638       C  0.26124928  0.78232830  0.64323291    -0.12500
C2639       C  0.26659221  0.76950083  0.62331235     0.13200
C2640       C  0.26659170  0.78027315  0.60213983    -0.23000
C2641       C  0.24774408  0.84080800  0.61888902    -0.06000
H2642       H  0.25133236  0.81523349  0.65664729     0.14700
C2643       C  0.27249407  0.74449359  0.62374792    -0.16200
H2644       H  0.27060072  0.77043843  0.58687557     0.09000
H2645       H  0.19800564  0.82055083  0.54189738     0.06900
H2646       H  0.21320763  0.79930152  0.52451465     0.08100
H2647       H  0.21075706  0.82824821  0.51549264     0.07100
H2648       H  0.31067097  0.81188636  0.58314877     0.02000
H2649       H  0.29910636  0.83624421  0.59881185     0.02500
H2650       H  0.31481813  0.83984987  0.57249937     0.06000
H2651       H  0.24315672  0.84799855  0.63591714     0.05000
H2652       H  0.23157402  0.84264160  0.60793176    -0.00800
H2653       H  0.26233328  0.85085942  0.61167188     0.00700
H2654       H  0.25895402  0.73534073  0.61364446     0.04300
H2655       H  0.27274628  0.73752085  0.64113575     0.06300
H2656       H  0.29054583  0.74114586  0.61612704     0.07100
C2657       C  0.13134276  0.94729422  0.54165540    -0.22500
C2658       C  0.13646530  0.92665287  0.53052719     0.09500
C2659       C  0.11743792  0.91434652  0.52116254     0.09900
C2660       C  0.09387510  0.92357205  0.52197461    -0.17400
C2661       C  0.08874706  0.94474033  0.53216417    -0.27800
C2662       C  0.10772486  0.95656121  0.54259257     0.18200
C2663       C  0.16188518  0.91895744  0.52679719     0.12200
C2664       C  0.12218290  0.89182184  0.50955168    -0.12200
H2665       H  0.07945332  0.91458996  0.51384518     0.12500
C2666       C  0.10418039  0.97950788  0.55367408    -0.23000
H2667       H  0.14601485  0.95669795  0.54880669     0.08100
C2668       C  0.17449013  0.92528109  0.50718806     0.04500
C2669       C  0.19649855  0.91426359  0.50174142    -0.20200
C2670       C  0.20609666  0.89662420  0.51511689    -0.12500
C2671       C  0.19419467  0.89155049  0.53575818     0.13200
C2672       C  0.17234892  0.90291708  0.54132998    -0.23000
C2673       C  0.16404990  0.94282668  0.49136380    -0.06000
H2674       H  0.20555767  0.91845272  0.48609093     0.14700
C2675       C  0.20275796  0.87349658  0.55179647    -0.16200
H2676       H  0.16265074  0.89823096  0.55647634     0.09000
H2677       H  0.11555448  0.99185044  0.54496064     0.06900
H2678       H  0.10969334  0.97855115  0.57177442     0.08100
H2679       H  0.08538278  0.98611993  0.55311051     0.07100
H2680       H  0.13051812  0.87975965  0.52175708     0.02000
H2681       H  0.13455760  0.89382761  0.49494726     0.02500
H2682       H  0.10535280  0.88445725  0.50306393     0.06000
H2683       H  0.17607021  0.94562481  0.47664590     0.05000
H2684       H  0.16137596  0.95913806  0.50064710    -0.00800
H2685       H  0.14646756  0.93731447  0.48471416     0.00700
H2686       H  0.20576351  0.88106243  0.56886242     0.04300
H2687       H  0.21967884  0.86520263  0.54637683     0.06300
H2688       H  0.18892751  0.86045051  0.55320169     0.07100
C2689       C  0.37305708  0.92807159  0.52086976    -0.22500
C2690       C  0.35715106  0.93228321  0.50287260     0.09500
C2691       C  0.36367417  0.94752235  0.48579413     0.09900
C2692       C  0.38570024  0.95860885  0.48742273    -0.17400
C2693       C  0.40158669  0.95473982  0.50567791    -0.27800
C2694       C  0.39521256  0.93883115  0.52246071     0.18200
C2695       C  0.33444653  0.91947684  0.50173667     0.12200
C2696       C  0.34755838  0.95180084  0.46566223    -0.12200
H2697       H  0.39037174  0.97059745  0.47448159     0.12500
C2698       C  0.41185592  0.93232085  0.54173882    -0.23000
H2699       H  0.36813657  0.91603259  0.53368437     0.08100
C2700       C  0.33474819  0.89657546  0.49478805     0.04500
C2701       C  0.31314530  0.88490548  0.49417098    -0.20200
C2702       C  0.29103979  0.89549012  0.50024359    -0.12500
C2703       C  0.29068092  0.91839167  0.50728221     0.13200
C2704       C  0.31242698  0.93011171  0.50804349    -0.23000
C2705       C  0.35782461  0.88456785  0.48750520    -0.06000
H2706       H  0.31342815  0.86740310  0.48855077     0.14700
C2707       C  0.26735119  0.93068324  0.51312189    -0.16200
H2708       H  0.31225760  0.94769145  0.51339107     0.09000
H2709       H  0.40482399  0.91815999  0.55175190     0.06900
H2710       H  0.41383675  0.94676239  0.55368642     0.08100
H2711       H  0.42973240  0.92677137  0.53490931     0.07100
H2712       H  0.32985379  0.95884409  0.47148853     0.02000
H2713       H  0.34487135  0.93570381  0.45626997     0.02500
H2714       H  0.35539267  0.96399783  0.45373661     0.06000
H2715       H  0.35477238  0.86691534  0.48188149     0.05000
H2716       H  0.37070880  0.88398990  0.50188642    -0.00800
H2717       H  0.36592893  0.89364574  0.47312044     0.00700
H2718       H  0.25894770  0.92280118  0.52804522     0.04300
H2719       H  0.25484237  0.92993885  0.49845266     0.06300
H2720       H  0.27015161  0.94873581  0.51737326     0.07100
C2721       C  0.23901042  0.80573115  0.37304223    -0.22500
C2722       C  0.24073045  0.82853963  0.37909708     0.09500
C2723       C  0.24380978  0.84485863  0.36207580     0.09900
C2724       C  0.24464886  0.83790082  0.33917662    -0.17400
C2725       C  0.24328998  0.81498339  0.33322202    -0.27800
C2726       C  0.24008980  0.79872632  0.35029765     0.18200
C2727       C  0.24017688  0.83464198  0.40351454     0.12200
C2728       C  0.24745129  0.86932077  0.36813019    -0.12200
H2729       H  0.24740038  0.85019556  0.32598246     0.12500
C2730       C  0.23740860  0.77389400  0.34513786    -0.23000
H2731       H  0.23678187  0.79329320  0.38620665     0.08100
C2732       C  0.21916969  0.84333240  0.41413804     0.04500
C2733       C  0.21995637  0.84964752  0.43720536    -0.20200
C2734       C  0.24121728  0.84691778  0.45026772    -0.12500
C2735       C  0.26132939  0.83524730  0.43982786     0.13200
C2736       C  0.26067750  0.83004907  0.41651730    -0.23000
C2737       C  0.19577701  0.84538037  0.40122560    -0.06000
H2738       H  0.20359513  0.85651092  0.44461535     0.14700
C2739       C  0.28355993  0.82754836  0.45279458    -0.16200
H2740       H  0.27625077  0.82206483  0.40830234     0.09000
H2741       H  0.22042372  0.76811502  0.35276709     0.06900
H2742       H  0.23660522  0.76997316  0.32670704     0.08100
H2743       H  0.25274626  0.76410125  0.35259772     0.07100
H2744       H  0.26364794  0.87071640  0.37901429     0.02000
H2745       H  0.23163293  0.87649847  0.37747436     0.02500
H2746       H  0.25008344  0.87968599  0.35276287     0.06000
H2747       H  0.18083506  0.85206223  0.41214281     0.05000
H2748       H  0.19081192  0.82847670  0.39470165    -0.00800
H2749       H  0.19753579  0.85691217  0.38665822     0.00700
H2750       H  0.27875490  0.81520626  0.46590883     0.04300
H2751       H  0.29284573  0.84180760  0.46078181     0.06300
H2752       H  0.29698395  0.81881560  0.44150655     0.07100
C2753       C  0.30902143  0.58327238  0.22481405    -0.22500
C2754       C  0.31439600  0.59894756  0.24196887     0.09500
C2755       C  0.33162673  0.59267071  0.25863760     0.09900
C2756       C  0.34408296  0.57148650  0.25691501    -0.17400
C2757       C  0.33981703  0.55642312  0.23879755    -0.27800
C2758       C  0.32150250  0.56222943  0.22297618     0.18200
C2759       C  0.30356639  0.62247850  0.24063802     0.12200
C2760       C  0.33735807  0.60865201  0.27781369    -0.12200
H2761       H  0.35812111  0.56721489  0.26903475     0.12500
C2762       C  0.31517753  0.54627179  0.20393037    -0.23000
H2763       H  0.29565424  0.58795315  0.21218690     0.08100
C2764       C  0.31433346  0.63903247  0.22727609     0.04500
C2765       C  0.30389528  0.66097765  0.22623829    -0.20200
C2766       C  0.28242400  0.66722256  0.23793019    -0.12500
C2767       C  0.27098495  0.65006913  0.25047625     0.13200
C2768       C  0.28184254  0.62812749  0.25180846    -0.23000
C2769       C  0.33694043  0.63347721  0.21392472    -0.06000
H2770       H  0.31286186  0.67336341  0.21612968     0.14700
C2771       C  0.24720348  0.65434959  0.26227057    -0.16200
H2772       H  0.27325065  0.61519802  0.26154440     0.09000
H2773       H  0.29978261  0.55296343  0.19375919     0.06900
H2774       H  0.31012070  0.52979529  0.21106589     0.08100
H2775       H  0.33066767  0.54359039  0.19223837     0.07100
H2776       H  0.32081215  0.61260440  0.28785364     0.02000
H2777       H  0.34431506  0.62456033  0.27091062     0.02500
H2778       H  0.35114528  0.60124784  0.28942390     0.06000
H2779       H  0.34311644  0.64824965  0.20428975     0.05000
H2780       H  0.33356755  0.61964287  0.20154720    -0.00800
H2781       H  0.35158936  0.62801643  0.22562271     0.00700
H2782       H  0.23343588  0.66003346  0.24974931     0.04300
H2783       H  0.24908080  0.66730950  0.27585386     0.06300
H2784       H  0.24060764  0.63885337  0.27037181     0.07100
C2785       C  0.16593021  0.94098492  0.23849939    -0.22500
C2786       C  0.19073454  0.94262784  0.24205072     0.09500
C2787       C  0.19981290  0.96369156  0.24894835     0.09900
C2788       C  0.18376371  0.98234141  0.25289464    -0.17400
C2789       C  0.15877895  0.98036546  0.25032865    -0.27800
C2790       C  0.14987846  0.95941102  0.24256995     0.18200
C2791       C  0.20603566  0.92133716  0.24100606     0.12200
C2792       C  0.22636333  0.96629576  0.25260825    -0.12200
H2793       H  0.19065735  0.99828177  0.25883504     0.12500
C2794       C  0.12352212  0.95557715  0.23870120    -0.23000
H2795       H  0.15889156  0.92485736  0.23325913     0.08100
C2796       C  0.20861180  0.90757079  0.26032055     0.04500
C2797       C  0.22039252  0.88627912  0.25841227    -0.20200
C2798       C  0.22920695  0.87770245  0.23747209    -0.12500
C2799       C  0.22721726  0.89179309  0.21814883     0.13200
C2800       C  0.21576786  0.91345453  0.22020364    -0.23000
C2801       C  0.19789041  0.91491538  0.28285507    -0.06000
H2802       H  0.22182733  0.87578719  0.27335467     0.14700
C2803       C  0.23572826  0.88363980  0.19510594    -0.16200
H2804       H  0.21350940  0.92391732  0.20532190     0.09000
H2805       H  0.11735218  0.94234340  0.25038663     0.06900
H2806       H  0.12072945  0.94982371  0.22089998     0.08100
H2807       H  0.11208311  0.97092947  0.24143989     0.07100
H2808       H  0.23618261  0.96234545  0.23654906     0.02000
H2809       H  0.23291032  0.95457329  0.26598318     0.02500
H2810       H  0.23055114  0.98378113  0.25799314     0.06000
H2811       H  0.20115890  0.90203950  0.29616917     0.05000
H2812       H  0.17813336  0.91762609  0.28111593    -0.00800
H2813       H  0.20593512  0.93089433  0.28865810     0.00700
H2814       H  0.22639321  0.86798331  0.19028645     0.04300
H2815       H  0.25545720  0.88018981  0.19543117     0.06300
H2816       H  0.23191533  0.89639862  0.18178821     0.07100
C2817       C  0.07626628  0.76142521  0.32355913    -0.22500
C2818       C  0.09760855  0.75580831  0.33526117     0.09500
C2819       C  0.09631244  0.74868898  0.35795753     0.09900
C2820       C  0.07378280  0.74754029  0.36849098    -0.17400
C2821       C  0.05223814  0.75254071  0.35672622    -0.27800
C2822       C  0.05354382  0.75939871  0.33382946     0.18200
C2823       C  0.12112673  0.75689412  0.32331521     0.12200
C2824       C  0.11866068  0.74166178  0.37086151    -0.12200
H2825       H  0.07297623  0.74232692  0.38604564     0.12500
C2826       C  0.03156354  0.76346497  0.31933573    -0.23000
H2827       H  0.07732929  0.76666146  0.30600576     0.08100
C2828       C  0.12926360  0.73957827  0.30827782     0.04500
C2829       C  0.15127183  0.74168631  0.29680045    -0.20200
C2830       C  0.16553039  0.76070249  0.30005376    -0.12500
C2831       C  0.15787284  0.77744521  0.31626475     0.13200
C2832       C  0.13574883  0.77530954  0.32754551    -0.23000
C2833       C  0.11477123  0.71878453  0.30451787    -0.06000
H2834       H  0.15705856  0.72861462  0.28478641     0.14700
C2835       C  0.17298874  0.79737368  0.32229109    -0.16200
H2836       H  0.12966436  0.78819531  0.33965221     0.09000
H2837       H  0.03296947  0.75275739  0.30374919     0.06900
H2838       H  0.03037015  0.78148978  0.31435792     0.08100
H2839       H  0.01464067  0.75917380  0.32793133     0.07100
H2840       H  0.13087973  0.75607777  0.37228958     0.02000
H2841       H  0.12809894  0.72741748  0.36179664     0.02500
H2842       H  0.11438534  0.73601854  0.38830136     0.06000
H2843       H  0.12382504  0.70668434  0.29249129     0.05000
H2844       H  0.09687598  0.72359171  0.29742389    -0.00800
H2845       H  0.11229716  0.71006075  0.32092300     0.00700
H2846       H  0.16534728  0.80722647  0.33691421     0.04300
H2847       H  0.17391470  0.80904045  0.30773212     0.06300
H2848       H  0.19137040  0.79140469  0.32707320     0.07100
C2849       C  0.02642395  0.67989141  0.43422535    -0.22500
C2850       C  0.00978454  0.66349913  0.42889423     0.09500
C2851       C  0.99014684  0.66905089  0.41479803     0.09900
C2852       C  0.98781766  0.69087952  0.40583576    -0.17400
C2853       C  0.00483558  0.70762835  0.41037782    -0.27800
C2854       C  0.02427550  0.70185756  0.42544463     0.18200
C2855       C  0.01280597  0.64069217  0.43877889     0.12200
C2856       C  0.97192746  0.65162981  0.40870630    -0.12200
H2857       H  0.97298258  0.69403032  0.39450953     0.12500
C2858       C  0.04317536  0.71834584  0.43263654    -0.23000
H2859       H  0.04124899  0.67537569  0.44541027     0.08100
C2860       C  0.02654356  0.62332237  0.42780880     0.04500
C2861       C  0.02755073  0.60160924  0.43720796    -0.20200
C2862       C  0.01460885  0.59685957  0.45694874    -0.12500
C2863       C  0.00152034  0.61449309  0.46833722     0.13200
C2864       C  0.00089649  0.63624463  0.45912749    -0.23000
C2865       C  0.03950624  0.62755859  0.40587344    -0.06000
H2866       H  0.03759351  0.58805997  0.42859034     0.14700
C2867       C  0.98851351  0.61058411  0.49037055    -0.16200
H2868       H  0.99061762  0.64977664  0.46753074     0.09000
H2869       H  0.05752394  0.71007638  0.44302572     0.06900
H2870       H  0.03504761  0.73198307  0.44341294     0.08100
H2871       H  0.05222306  0.72564616  0.41782694     0.07100
H2872       H  0.96310541  0.64563518  0.42435412     0.02000
H2873       H  0.98100080  0.63703891  0.39989132     0.02500
H2874       H  0.95770804  0.65855620  0.39727694     0.06000
H2875       H  0.04941127  0.61215504  0.39956147     0.05000
H2876       H  0.05266433  0.64107095  0.40846569    -0.00800
H2877       H  0.02636371  0.63291010  0.39265549     0.00700
H2878       H  0.00132159  0.60357797  0.50312391     0.04300
H2879       H  0.97381756  0.59866602  0.48767262     0.06300
H2880       H  0.98031245  0.62650075  0.49745210     0.07100
C2881       C  0.98967150  0.87586052  0.43310300    -0.22500
C2882       C  0.00765745  0.86056999  0.44051893     0.09500
C2883       C  0.02421071  0.86755657  0.45717892     0.09900
C2884       C  0.02216733  0.88962222  0.46624999    -0.17400
C2885       C  0.00373159  0.90473099  0.45929381    -0.27800
C2886       C  0.98747643  0.89784037  0.44222291     0.18200
C2887       C  0.00850029  0.83728377  0.43071199     0.12200
C2888       C  0.04352876  0.85152400  0.46588208    -0.12200
H2889       H  0.03453673  0.89487733  0.47938001     0.12500
C2890       C  0.96798194  0.91329792  0.43278481    -0.23000
H2891       H  0.97718042  0.87055535  0.42009279     0.08100
C2892       C  0.99183443  0.82108986  0.43727109     0.04500
C2893       C  0.99262385  0.79960642  0.42685332    -0.20200
C2894       C  0.00958594  0.79383896  0.40981728    -0.12500
C2895       C  0.02693450  0.80989321  0.40394218     0.13200
C2896       C  0.02596582  0.83144682  0.41432604    -0.23000
C2897       C  0.97328995  0.82646282  0.45537558    -0.06000
H2898       H  0.97951062  0.78737737  0.43171214     0.14700
C2899       C  0.04744097  0.80421950  0.38789702    -0.16200
H2900       H  0.03892458  0.84389575  0.40963916     0.09000
H2901       H  0.95010024  0.90629003  0.43640950     0.06900
H2902       H  0.97024607  0.91453214  0.41409746     0.08100
H2903       H  0.96836816  0.93069483  0.43981886     0.07100
H2904       H  0.05558524  0.84594591  0.45173374     0.02000
H2905       H  0.03514921  0.83653796  0.47338454     0.02500
H2906       H  0.05469530  0.85957289  0.47916266     0.06000
H2907       H  0.96211474  0.81169385  0.45900346     0.05000
H2908       H  0.96111857  0.84052766  0.44979270    -0.00800
H2909       H  0.98238439  0.83147629  0.47136494     0.00700
H2910       H  0.04094961  0.80235029  0.37025559     0.04300
H2911       H  0.05693105  0.78844682  0.39335920     0.06300
H2912       H  0.06081105  0.81777545  0.38772926     0.07100
C2913       C  0.72133856  0.21540269  0.43317310    -0.22500
C2914       C  0.73443086  0.21240876  0.41298937     0.09500
C2915       C  0.74708217  0.19167386  0.40917955     0.09900
C2916       C  0.74785617  0.17524535  0.42628968    -0.17400
C2917       C  0.73592650  0.17856175  0.44734398    -0.27800
C2918       C  0.72081497  0.19842917  0.44973657     0.18200
C2919       C  0.73312242  0.23020275  0.39514353     0.12200
C2920       C  0.75922793  0.18652162  0.38670856    -0.12200
H2921       H  0.75730727  0.15946611  0.42254044     0.12500
C2922       C  0.70312714  0.20240025  0.46890219    -0.23000
H2923       H  0.71071311  0.23088975  0.43571749     0.08100
C2924       C  0.71208301  0.23402794  0.38216509     0.04500
C2925       C  0.71305860  0.24763374  0.36281721    -0.20200
C2926       C  0.73465651  0.25718928  0.35561154    -0.12500
C2927       C  0.75490840  0.25561726  0.37020510     0.13200
C2928       C  0.75387349  0.24200489  0.38967813    -0.23000
C2929       C  0.68901302  0.22250136  0.38765294    -0.06000
H2930       H  0.69734574  0.24904824  0.35195133     0.14700
C2931       C  0.77828047  0.26686945  0.36542042    -0.16200
H2932       H  0.76981426  0.23968151  0.40009027     0.09000
H2933       H  0.68497371  0.20610733  0.46174401     0.06900
H2934       H  0.70854664  0.21715308  0.47929712     0.08100
H2935       H  0.70123444  0.18768308  0.48000386     0.07100
H2936       H  0.77372301  0.19860497  0.38372666     0.02000
H2937       H  0.74582697  0.18786732  0.37276917     0.02500
H2938       H  0.76745678  0.16919054  0.38613274     0.06000
H2939       H  0.67466358  0.22653251  0.37508374     0.05000
H2940       H  0.68232472  0.22816632  0.40460133    -0.00800
H2941       H  0.69215223  0.20388922  0.38761029     0.00700
H2942       H  0.78311495  0.27750521  0.38029859     0.04300
H2943       H  0.77752685  0.27805069  0.35055640     0.06300
H2944       H  0.79276600  0.25381932  0.36259235     0.07100
C2945       C  0.80924984  0.08024713  0.47554050    -0.22500
C2946       C  0.82909666  0.08939432  0.48669266     0.09500
C2947       C  0.82645533  0.11084876  0.49734829     0.09900
C2948       C  0.80437133  0.12298955  0.49578765    -0.17400
C2949       C  0.78466385  0.11400227  0.48427623    -0.27800
C2950       C  0.78700989  0.09217815  0.47440136     0.18200
C2951       C  0.85246860  0.07630633  0.48690640     0.12200
C2952       C  0.84686283  0.12085752  0.51049310    -0.12200
H2953       H  0.80259552  0.13978881  0.50322537     0.12500
C2954       C  0.76648578  0.08106832  0.46245683    -0.23000
H2955       H  0.81116517  0.06369880  0.46755066     0.08100
C2956       C  0.85609385  0.05731054  0.50089235     0.04500
C2957       C  0.87863936  0.04592917  0.50102270    -0.20200
C2958       C  0.89799113  0.05319461  0.48780354    -0.12500
C2959       C  0.89420585  0.07203563  0.47346133     0.13200
C2960       C  0.87145726  0.08324435  0.47312374    -0.23000
C2961       C  0.83649118  0.04956467  0.51639686    -0.06000
H2962       H  0.88138130  0.03154533  0.51206383     0.14700
C2963       C  0.91427268  0.08112294  0.45936397    -0.16200
H2964       H  0.86856278  0.09783324  0.46239167     0.09000
H2965       H  0.76282047  0.06478984  0.47078605     0.06900
H2966       H  0.77139516  0.07769188  0.44442491     0.08100
H2967       H  0.74964030  0.09155050  0.46286661     0.07100
H2968       H  0.86237439  0.12345989  0.49904746     0.02000
H2969       H  0.85250879  0.10925591  0.52432784     0.02500
H2970       H  0.84155052  0.13744198  0.51829914     0.06000
H2971       H  0.84248595  0.03472783  0.52655044     0.05000
H2972       H  0.82063077  0.04465542  0.50626605    -0.00800
H2973       H  0.83111562  0.06345657  0.52836148     0.00700
H2974       H  0.92048338  0.06821203  0.44667827     0.04300
H2975       H  0.92949137  0.08569284  0.47053639     0.06300
H2976       H  0.90838661  0.09649550  0.44997773     0.07100
C2977       C  0.66244233  0.09584440  0.48902677    -0.22500
C2978       C  0.65486159  0.09956226  0.51152620     0.09500
C2979       C  0.66934858  0.11214578  0.52637926     0.09900
C2980       C  0.69068149  0.12137963  0.51812068    -0.17400
C2981       C  0.69779412  0.11846864  0.49527601    -0.27800
C2982       C  0.68374889  0.10494620  0.48074450     0.18200
C2983       C  0.63127251  0.09060693  0.51862520     0.12200
C2984       C  0.66203893  0.11615722  0.55076361    -0.12200
H2985       H  0.70141959  0.13157604  0.52938500     0.12500
C2986       C  0.69083242  0.09933500  0.45656879    -0.23000
H2987       H  0.65149105  0.08585132  0.47773988     0.08100
C2988       C  0.60952041  0.10274060  0.51435810     0.04500
C2989       C  0.58744012  0.09239873  0.51814568    -0.20200
C2990       C  0.58650727  0.07019855  0.52625060    -0.12500
C2991       C  0.60836528  0.05833017  0.53128255     0.13200
C2992       C  0.63043350  0.06876002  0.52751695    -0.23000
C2993       C  0.60966775  0.12638322  0.50516015    -0.06000
H2994       H  0.57077709  0.10139909  0.51398113     0.14700
C2995       C  0.60926938  0.03420119  0.53923892    -0.16200
H2996       H  0.64715101  0.05938865  0.53059879     0.09000
H2997       H  0.67703240  0.10646335  0.44482444     0.06900
H2998       H  0.69194787  0.08069363  0.45422582     0.08100
H2999       H  0.70856383  0.10584622  0.45179558     0.07100
H3000       H  0.66061085  0.09971668  0.55947671     0.02000
H3001       H  0.64434563  0.12534113  0.55151284     0.02500
H3002       H  0.67533628  0.12636457  0.56009708     0.06000
H3003       H  0.59114814  0.13349710  0.50271612     0.05000
H3004       H  0.61902393  0.12634925  0.48849008    -0.00800
H3005       H  0.61916751  0.13758729  0.51719488     0.00700
H3006       H  0.61957069  0.02349101  0.52679123     0.04300
H3007       H  0.59128940  0.02692994  0.54115496     0.06300
H3008       H  0.61847686  0.03330053  0.55594741     0.07100
C3009       C  0.16324582  0.57587751  0.75317017    -0.22500
C3010       C  0.18836905  0.57455803  0.75241683     0.09500
C3011       C  0.20018019  0.55326977  0.75289313     0.09900
C3012       C  0.18660936  0.53364800  0.75340430    -0.17400
C3013       C  0.16109694  0.53443768  0.75331453    -0.27800
C3014       C  0.14941885  0.55635636  0.75361589     0.18200
C3015       C  0.20201563  0.59571789  0.75117508     0.12200
C3016       C  0.22728124  0.55128500  0.75277606    -0.12200
H3017       H  0.19665109  0.51790017  0.75372274     0.12500
C3018       C  0.12245436  0.56046754  0.75400064    -0.23000
H3019       H  0.15427121  0.59240860  0.75312171     0.08100
C3020       C  0.20784447  0.60545961  0.73015630     0.04500
C3021       C  0.22027862  0.62580630  0.72988175    -0.20200
C3022       C  0.22648103  0.63689380  0.75017037    -0.12500
C3023       C  0.22130217  0.62666022  0.77121158     0.13200
C3024       C  0.20916863  0.60620676  0.77140727    -0.23000
C3025       C  0.20022393  0.59475171  0.70808099    -0.06000
H3026       H  0.22393621  0.63375634  0.71379018     0.14700
C3027       C  0.22833000  0.63677105  0.79378617    -0.16200
H3028       H  0.20499117  0.59849630  0.78750555     0.09000
H3029       H  0.11691682  0.57003003  0.73864507     0.06900
H3030       H  0.11740753  0.57071950  0.76928550     0.08100
H3031       H  0.11179925  0.54509117  0.75438581     0.07100
H3032       H  0.23451265  0.56006393  0.76795124     0.02000
H3033       H  0.23444707  0.55911909  0.73722448     0.02500
H3034       H  0.23387963  0.53339651  0.75309360     0.06000
H3035       H  0.20617305  0.60451986  0.69319900     0.05000
H3036       H  0.18030592  0.59396868  0.70753223    -0.00800
H3037       H  0.20815448  0.57736787  0.70656965     0.00700
H3038       H  0.21187275  0.64095497  0.80386199     0.04300
H3039       H  0.23889262  0.65224116  0.79213784     0.06300
H3040       H  0.23960647  0.62429592  0.80328920     0.07100
C3041       C  0.16503483  0.40882446  0.73594894    -0.22500
C3042       C  0.18107516  0.40439180  0.75382025     0.09500
C3043       C  0.18584439  0.42166422  0.76969942     0.09900
C3044       C  0.17430702  0.44292733  0.76742680    -0.17400
C3045       C  0.15821784  0.44757344  0.74950426    -0.27800
C3046       C  0.15355349  0.43013187  0.73351511     0.18200
C3047       C  0.19261830  0.38150681  0.75553210     0.12200
C3048       C  0.20293914  0.41761599  0.78916768    -0.12200
H3049       H  0.17775188  0.45605399  0.77988981     0.12500
C3050       C  0.13741064  0.43324169  0.71326121    -0.23000
H3051       H  0.16160924  0.39554011  0.72363484     0.08100
C3052       C  0.17954101  0.36281103  0.76268246     0.04500
C3053       C  0.19087235  0.34129730  0.76291534    -0.20200
C3054       C  0.21505494  0.33799944  0.75637401    -0.12500
C3055       C  0.22833890  0.35687480  0.74974286     0.13200
C3056       C  0.21689837  0.37837792  0.74942565    -0.23000
C3057       C  0.15368175  0.36557627  0.77017159    -0.06000
H3058       H  0.18071258  0.32685478  0.76803295     0.14700
C3059       C  0.25413158  0.35499488  0.74187754    -0.16200
H3060       H  0.22686329  0.39278056  0.74386862     0.09000
H3061       H  0.12239397  0.42134698  0.71416315     0.06900
H3062       H  0.14783697  0.42975396  0.69743916     0.08100
H3063       H  0.12970683  0.45044486  0.71213388     0.07100
H3064       H  0.22126458  0.41351549  0.78253874     0.02000
H3065       H  0.19676949  0.40334056  0.79952388     0.02500
H3066       H  0.20405575  0.43273020  0.80042614     0.06000
H3067       H  0.14637500  0.34935075  0.77593330     0.05000
H3068       H  0.14239234  0.37177328  0.75587118    -0.00800
H3069       H  0.15228866  0.37789763  0.78451485     0.00700
H3070       H  0.25542635  0.36145724  0.72429508     0.04300
H3071       H  0.26162202  0.33747236  0.74172205     0.06300
H3072       H  0.26546711  0.36535935  0.75320061     0.07100
C3073       C  0.10438637  0.48663421  0.66518857    -0.22500
C3074       C  0.07931616  0.48537136  0.66492604     0.09500
C3075       C  0.06672114  0.48421938  0.68573741     0.09900
C3076       C  0.07939370  0.48609411  0.70641289    -0.17400
C3077       C  0.10442070  0.48859190  0.70664070    -0.27800
C3078       C  0.11716222  0.48773772  0.68567323     0.18200
C3079       C  0.06681964  0.48657781  0.64258159     0.12200
C3080       C  0.03998909  0.48092360  0.68604038    -0.12200
H3081       H  0.06969343  0.48616676  0.72239403     0.12500
C3082       C  0.14427410  0.48731227  0.68411285    -0.23000
H3083       H  0.11409583  0.48687852  0.64920426     0.08100
C3084       C  0.05808494  0.50742724  0.63407515     0.04500
C3085       C  0.04795162  0.50830801  0.61224814    -0.20200
C3086       C  0.04688843  0.48896933  0.59813949    -0.12500
C3087       C  0.05577199  0.46795696  0.60678579     0.13200
C3088       C  0.06548959  0.46709487  0.62891821    -0.23000
C3089       C  0.06024686  0.52897372  0.64773022    -0.06000
H3090       H  0.04148409  0.52449848  0.60591800     0.14700
C3091       C  0.05500192  0.44630225  0.59309305    -0.16200
H3092       H  0.07252267  0.45119378  0.63549797     0.09000
H3093       H  0.15022577  0.50273841  0.67545539     0.06900
H3094       H  0.15048668  0.47223802  0.67407029     0.08100
H3095       H  0.15329197  0.48613622  0.70081421     0.07100
H3096       H  0.03595924  0.46471881  0.67737315     0.02000
H3097       H  0.03046239  0.49494382  0.67710275     0.02500
H3098       H  0.03288989  0.48035978  0.70366013     0.06000
H3099       H  0.05257334  0.54382341  0.63857300     0.05000
H3100       H  0.07950313  0.53204314  0.65120354    -0.00800
H3101       H  0.05052142  0.52770072  0.66409856     0.00700
H3102       H  0.06688935  0.44729549  0.57800719     0.04300
H3103       H  0.03626169  0.44322617  0.58763534     0.06300
H3104       H  0.06138618  0.43148422  0.60308048     0.07100
C3105       C  0.07419978  0.49572623  0.87266625    -0.22500
C3106       C  0.06470526  0.48142065  0.85603750     0.09500
C3107       C  0.04554519  0.46745003  0.86191392     0.09900
C3108       C  0.03606459  0.46844419  0.88418820    -0.17400
C3109       C  0.04466627  0.48376638  0.90050366    -0.27800
C3110       C  0.06421633  0.49747196  0.89458125     0.18200
C3111       C  0.07475121  0.48220716  0.83248469     0.12200
C3112       C  0.03437246  0.45233089  0.84438445    -0.12200
H3113       H  0.02106003  0.45804375  0.88851506     0.12500
C3114       C  0.07484536  0.51402572  0.91120052    -0.23000
H3115       H  0.08908149  0.50621641  0.86816075     0.08100
C3116       C  0.07089454  0.50127889  0.81861315     0.04500
C3117       C  0.08325212  0.50267416  0.79780686    -0.20200
C3118       C  0.09907770  0.48523368  0.78999855    -0.12500
C3119       C  0.10123371  0.46522432  0.80317250     0.13200
C3120       C  0.08948136  0.46426854  0.82435932    -0.23000
C3121       C  0.05373027  0.52022376  0.82579772    -0.06000
H3122       H  0.08114036  0.51789067  0.78783316     0.14700
C3123       C  0.11613421  0.44467182  0.79628460    -0.16200
H3124       H  0.09222498  0.44948746  0.83487487     0.09000
H3125       H  0.09129096  0.52167346  0.90433019     0.06900
H3126       H  0.07984178  0.50527073  0.92716855     0.08100
H3127       H  0.06178176  0.52813062  0.91490691     0.07100
H3128       H  0.04796553  0.43974251  0.83790207     0.02000
H3129       H  0.02746548  0.46266627  0.83002995     0.02500
H3130       H  0.01912329  0.44301441  0.85153098     0.06000
H3131       H  0.05216141  0.53350855  0.81266775     0.05000
H3132       H  0.06002485  0.52827836  0.84173035    -0.00800
H3133       H  0.03557603  0.51344206  0.82861011     0.00700
H3134       H  0.13125850  0.44210902  0.80837208     0.04300
H3135       H  0.10475592  0.42957506  0.79652134     0.06300
H3136       H  0.12350071  0.44571096  0.77913208     0.07100
C3137       C  0.21415540  0.67685827  0.92153983    -0.22500
C3138       C  0.23107414  0.66938286  0.90532557     0.09500
C3139       C  0.24828980  0.65235246  0.91076354     0.09900
C3140       C  0.24854605  0.64351006  0.93270122    -0.17400
C3141       C  0.23230697  0.65163022  0.94938554    -0.27800
C3142       C  0.21421051  0.66788225  0.94345190     0.18200
C3143       C  0.23154513  0.68068767  0.88322681     0.12200
C3144       C  0.26690536  0.64412280  0.89369612    -0.12200
H3145       H  0.26213639  0.63079712  0.93706100     0.12500
C3146       C  0.19426456  0.67563979  0.95932822    -0.23000
H3147       H  0.20080889  0.68977873  0.91703011     0.08100
C3148       C  0.21964755  0.67200110  0.86410511     0.04500
C3149       C  0.22244920  0.68248079  0.84311170    -0.20200
C3150       C  0.23686616  0.70146112  0.84086312    -0.12500
C3151       C  0.24752319  0.71094924  0.86057941     0.13200
C3152       C  0.24476406  0.70027848  0.88147127    -0.23000
C3153       C  0.20406865  0.65172033  0.86588352    -0.06000
H3154       H  0.21372306  0.67546377  0.82830435     0.14700
C3155       C  0.26144454  0.73242165  0.86012220    -0.16200
H3156       H  0.25333460  0.70699048  0.89654164     0.09000
H3157       H  0.17663398  0.67330360  0.95090309     0.06900
H3158       H  0.19611283  0.69384902  0.96347286     0.08100
H3159       H  0.19390934  0.66595262  0.97529163     0.07100
H3160       H  0.27792684  0.65843411  0.88828237     0.02000
H3161       H  0.25797511  0.63680082  0.87858819     0.02500
H3162       H  0.27920214  0.63091154  0.90089631     0.06000
H3163       H  0.19598151  0.64719582  0.84925626     0.05000
H3164       H  0.18923503  0.65542479  0.87813535    -0.00800
H3165       H  0.21488659  0.63690316  0.87186118     0.00700
H3166       H  0.26633195  0.73821928  0.87748329     0.04300
H3167       H  0.25036998  0.74613753  0.85221511     0.06300
H3168       H  0.27850820  0.72959263  0.85059465     0.07100
C3169       C  0.11620939  0.57521571  0.99327895    -0.22500
C3170       C  0.13498494  0.56469015  0.98091389     0.09500
C3171       C  0.13095141  0.54456488  0.96861913     0.09900
C3172       C  0.10800837  0.53524367  0.96924003    -0.17400
C3173       C  0.08933620  0.54565695  0.98198991    -0.27800
C3174       C  0.09342113  0.56594873  0.99403256     0.18200
C3175       C  0.15883059  0.57487196  0.98228564     0.12200
C3176       C  0.15086355  0.53288316  0.95521241    -0.12200
H3177       H  0.10478999  0.51953721  0.96027246     0.12500
C3178       C  0.07427260  0.57816105  0.00804843    -0.23000
H3179       H  0.11949819  0.59066090  0.00271408     0.08100
C3180       C  0.16473295  0.59316291  0.96842905     0.04500
C3181       C  0.18598186  0.60454677  0.97269510    -0.20200
C3182       C  0.20094314  0.59854941  0.99096419    -0.12500
C3183       C  0.19535494  0.57988395  0.00452713     0.13200
C3184       C  0.17430535  0.56820984  0.99994625    -0.23000
C3185       C  0.14816204  0.60123883  0.94978056    -0.06000
H3186       H  0.19035054  0.61892368  0.96238927     0.14700
C3187       C  0.21108261  0.57189915  0.02385019    -0.16200
H3188       H  0.16949893  0.55427837  0.01068553     0.09000
H3189       H  0.07166926  0.59569061  0.00178942     0.06900
H3190       H  0.08008323  0.57883974  0.02608377     0.08100
H3191       H  0.05660645  0.57001069  0.00732240     0.07100
H3192       H  0.16594133  0.52809667  0.96671747     0.02000
H3193       H  0.15749187  0.54440164  0.94200320     0.02500
H3194       H  0.14465289  0.51730083  0.94663652     0.06000
H3195       H  0.15546308  0.61592176  0.94074721     0.05000
H3196       H  0.13041711  0.60653375  0.95705784    -0.00800
H3197       H  0.14566172  0.58741052  0.93719966     0.00700
H3198       H  0.20096003  0.57367279  0.04007588     0.04300
H3199       H  0.22786582  0.58141426  0.02540944     0.06300
H3200       H  0.21632626  0.55382404  0.02110325     0.07100
C3201       C  0.32673539  0.60020359  0.97054675    -0.22500
C3202       C  0.32816247  0.57769896  0.97765691     0.09500
C3203       C  0.30751596  0.56750046  0.98639708     0.09900
C3204       C  0.28615607  0.58050685  0.98890782    -0.17400
C3205       C  0.28522231  0.60335152  0.98297081    -0.27800
C3206       C  0.30546287  0.61320204  0.97306734     0.18200
C3207       C  0.35211317  0.56620130  0.97823053     0.12200
C3208       C  0.30813365  0.54308238  0.99336833    -0.12200
H3209       H  0.27049001  0.57317023  0.99654677     0.12500
C3210       C  0.30546872  0.63749066  0.96562374    -0.23000
H3211       H  0.34264872  0.60797684  0.96390009     0.08100
C3212       C  0.36443213  0.55941415  0.95826970     0.04500
C3213       C  0.38792042  0.55022428  0.95994006    -0.20200
C3214       C  0.39932009  0.54739534  0.98115999    -0.12500
C3215       C  0.38648013  0.55375137  0.00121264     0.13200
C3216       C  0.36321363  0.56333709  0.99937386    -0.23000
C3217       C  0.35263155  0.56146340  0.93531141    -0.06000
H3218       H  0.39744315  0.54528543  0.94450718     0.14700
C3219       C  0.39660874  0.54997385  0.02467748    -0.16200
H3220       H  0.35354533  0.56877441  0.01458390     0.09000
H3221       H  0.28791834  0.64649542  0.96821905     0.06900
H3222       H  0.31926195  0.64669918  0.97534331     0.08100
H3223       H  0.30986755  0.63811902  0.94723732     0.07100
H3224       H  0.32117058  0.54034901  0.00739396     0.02000
H3225       H  0.31353381  0.53220670  0.97862666     0.02500
H3226       H  0.29025727  0.53774942  0.99937943     0.06000
H3227       H  0.36459003  0.55482723  0.92149473     0.05000
H3228       H  0.34809423  0.57943901  0.93168404    -0.00800
H3229       H  0.33590432  0.55168269  0.93505715     0.00700
H3230       H  0.41231531  0.56075222  0.02751250     0.04300
H3231       H  0.40198849  0.53188827  0.02670538     0.06300
H3232       H  0.38321609  0.55440056  0.03814954     0.07100
C3233       C  0.27400866  0.70156417  0.10721516    -0.22500
C3234       C  0.25128682  0.69591870  0.09896796     0.09500
C3235       C  0.23056827  0.70128954  0.11190584     0.09900
C3236       C  0.23296470  0.71257335  0.13271690    -0.17400
C3237       C  0.25562337  0.71854533  0.14115256    -0.27800
C3238       C  0.27651416  0.71283309  0.12822192     0.18200
C3239       C  0.24949645  0.68347379  0.07717191     0.12200
C3240       C  0.20591596  0.69489057  0.10388392    -0.12200
H3241       H  0.21689234  0.71661378  0.14257329     0.12500
C3242       C  0.30131762  0.71901249  0.13599089    -0.23000
H3243       H  0.28980960  0.69711869  0.09712690     0.08100
C3244       C  0.24540223  0.69466351  0.05654832     0.04500
C3245       C  0.24275719  0.68191784  0.03650395    -0.20200
C3246       C  0.24407496  0.65800540  0.03641748    -0.12500
C3247       C  0.24854852  0.64695986  0.05760495     0.13200
C3248       C  0.25106454  0.65994321  0.07749843    -0.23000
C3249       C  0.24393129  0.72012351  0.05571796    -0.06000
H3250       H  0.23991177  0.69117761  0.02109806     0.14700
C3251       C  0.25089131  0.62152332  0.06001213    -0.16200
H3252       H  0.25415955  0.65168501  0.09363225     0.09000
H3253       H  0.30198225  0.73755499  0.13886113     0.06900
H3254       H  0.31527738  0.71416139  0.12317948     0.08100
H3255       H  0.30598103  0.71005462  0.15192716     0.07100
H3256       H  0.20525110  0.67625422  0.10188388     0.02000
H3257       H  0.20182698  0.70288377  0.08732044     0.02500
H3258       H  0.19163866  0.70044804  0.11611275     0.06000
H3259       H  0.24066896  0.72630190  0.03820901     0.05000
H3260       H  0.26108247  0.72710015  0.06186679    -0.00800
H3261       H  0.22899121  0.72671958  0.06666117     0.00700
H3262       H  0.25477443  0.61659081  0.07781745     0.04300
H3263       H  0.26593206  0.61433504  0.04966702     0.06300
H3264       H  0.23394600  0.61336060  0.05536289     0.07100
C3265       C  0.75308090  0.31105876  0.08059400    -0.22500
C3266       C  0.75453552  0.28763664  0.07812482     0.09500
C3267       C  0.75484363  0.27770187  0.05639709     0.09900
C3268       C  0.75391738  0.29167761  0.03727659    -0.17400
C3269       C  0.75242013  0.31554124  0.03941098    -0.27800
C3270       C  0.75217414  0.32521356  0.06180777     0.18200
C3271       C  0.75499098  0.27433397  0.09906101     0.12200
C3272       C  0.75620927  0.25238184  0.05351985    -0.12200
H3273       H  0.75458385  0.28348163  0.02088407     0.12500
C3274       C  0.75101015  0.35027019  0.06735852    -0.23000
H3275       H  0.75271970  0.31842496  0.09757405     0.08100
C3276       C  0.77620883  0.27210675  0.11200041     0.04500
C3277       C  0.77462404  0.26528716  0.13458225    -0.20200
C3278       C  0.75227811  0.26114659  0.14451741    -0.12500
C3279       C  0.73116171  0.26193762  0.13106350     0.13200
C3280       C  0.73294112  0.26825304  0.10829430    -0.23000
C3281       C  0.80028457  0.27802518  0.10233270    -0.06000
H3282       H  0.79073608  0.26446122  0.14495686     0.14700
C3283       C  0.70627798  0.25821836  0.14029111    -0.16200
H3284       H  0.71671361  0.27028882  0.09821057     0.09000
H3285       H  0.76672406  0.35458462  0.07802092     0.06900
H3286       H  0.73432425  0.35435773  0.07715154     0.08100
H3287       H  0.75115453  0.36160103  0.05265968     0.07100
H3288       H  0.74045973  0.24486485  0.06184404     0.02000
H3289       H  0.77296130  0.24551681  0.06145254     0.02500
H3290       H  0.75624190  0.24719504  0.03533036     0.06000
H3291       H  0.81504069  0.27521711  0.11479970     0.05000
H3292       H  0.80007364  0.29608634  0.09746180    -0.00800
H3293       H  0.80428233  0.26734188  0.08709640     0.00700
H3294       H  0.69472428  0.27356055  0.13744259     0.04300
H3295       H  0.70586561  0.25475987  0.15868739     0.06300
H3296       H  0.69829082  0.24373268  0.13118927     0.07100
C3297       C  0.82611242  0.39465917  0.98203529    -0.22500
C3298       C  0.82683028  0.41078878  0.99957441     0.09500
C3299       C  0.80897471  0.41145144  0.01656673     0.09900
C3300       C  0.79097852  0.39542025  0.01595239    -0.17400
C3301       C  0.79063327  0.37879262  0.99879163    -0.27800
C3302       C  0.80828933  0.37847550  0.98148518     0.18200
C3303       C  0.84744798  0.42577686  0.00056923     0.12200
C3304       C  0.80928331  0.42873053  0.03553155    -0.12200
H3305       H  0.77738418  0.39551516  0.02918065     0.12500
C3306       C  0.80961313  0.36087732  0.96282721    -0.23000
H3307       H  0.84004593  0.39424766  0.96911258     0.08100
C3308       C  0.86904326  0.41879304  0.01120718     0.04500
C3309       C  0.88872188  0.43291864  0.01067413    -0.20200
C3310       C  0.88739711  0.45380129  0.99953952    -0.12500
C3311       C  0.86531787  0.46107785  0.98948723     0.13200
C3312       C  0.84561786  0.44684940  0.99012260    -0.23000
C3313       C  0.87140572  0.39627295  0.02282358    -0.06000
H3314       H  0.90549944  0.42722161  0.01838682     0.14700
C3315       C  0.86206715  0.48383531  0.97845568    -0.16200
H3316       H  0.82876905  0.45200526  0.98218662     0.09000
H3317       H  0.82705959  0.35129493  0.96381979     0.06900
H3318       H  0.80831052  0.36923695  0.94606675     0.08100
H3319       H  0.79511120  0.34864327  0.96384755     0.07100
H3320       H  0.80798873  0.44598755  0.02836077     0.02000
H3321       H  0.82626972  0.42682650  0.04531330     0.02500
H3322       H  0.79400745  0.42681818  0.04745825     0.06000
H3323       H  0.88957906  0.39344908  0.03028064     0.05000
H3324       H  0.86828450  0.38243239  0.01039314    -0.00800
H3325       H  0.85798191  0.39548298  0.03673721     0.00700
H3326       H  0.87320189  0.48453752  0.96285674     0.04300
H3327       H  0.86714952  0.49738184  0.99057458     0.06300
H3328       H  0.84309762  0.48723478  0.97330533     0.07100
C3329       C  0.66757380  0.38962003  0.99110444    -0.22500
C3330       C  0.67240116  0.41235184  0.99546554     0.09500
C3331       C  0.69588234  0.41849338  0.00157416     0.09900
C3332       C  0.71419562  0.40167307  0.00269418    -0.17400
C3333       C  0.70923286  0.37891176  0.99860640    -0.27800
C3334       C  0.68568971  0.37275693  0.99273450     0.18200
C3335       C  0.65213775  0.42908128  0.99428702     0.12200
C3336       C  0.70153591  0.44266920  0.00701443    -0.12200
H3337       H  0.73231149  0.40617937  0.00733937     0.12500
C3338       C  0.67961812  0.34850014  0.98804826    -0.23000
H3339       H  0.64941417  0.38506487  0.98668280     0.08100
C3340       C  0.64204393  0.43565828  0.97332057     0.04500
C3341       C  0.62100776  0.44933805  0.97315155    -0.20200
C3342       C  0.60971283  0.45652498  0.99347317    -0.12500
C3343       C  0.62032586  0.45033459  0.01454236     0.13200
C3344       C  0.64143047  0.43671953  0.01459235    -0.23000
C3345       C  0.65336249  0.42808905  0.95113554    -0.06000
H3346       H  0.61312115  0.45415878  0.95701163     0.14700
C3347       C  0.60900594  0.45683833  0.03707122    -0.16200
H3348       H  0.64921724  0.43129898  0.03058592     0.09000
H3349       H  0.66050451  0.34690554  0.98297375     0.06900
H3350       H  0.68262319  0.33825607  0.00349920     0.08100
H3351       H  0.69103082  0.34144805  0.97407715     0.07100
H3352       H  0.69087995  0.44868224  0.02197354     0.02000
H3353       H  0.69702854  0.45348004  0.99223725     0.02500
H3354       H  0.72088814  0.44454999  0.01106175     0.06000
H3355       H  0.64340156  0.43511866  0.93633225     0.05000
H3356       H  0.65342415  0.40938714  0.94965100    -0.00800
H3357       H  0.67215303  0.43385827  0.95033667     0.00700
H3358       H  0.59035243  0.45070165  0.03779577     0.04300
H3359       H  0.60888941  0.47546285  0.03942464     0.06300
H3360       H  0.61910783  0.44935162  0.05156559     0.07100
C3361       C  0.32060642  0.91371260  0.77313374    -0.22500
C3362       C  0.32242042  0.90037330  0.75348944     0.09500
C3363       C  0.33647622  0.90763660  0.73522231     0.09900
C3364       C  0.34952558  0.92752984  0.73748155    -0.17400
C3365       C  0.34831853  0.94109284  0.75740918    -0.27800
C3366       C  0.33249591  0.93423843  0.77513537     0.18200
C3367       C  0.30899925  0.87905900  0.75223669     0.12200
C3368       C  0.33726741  0.89456664  0.71310138    -0.12200
H3369       H  0.35993505  0.93251222  0.72306399     0.12500
C3370       C  0.32680042  0.94791719  0.79642369    -0.23000
H3371       H  0.30922750  0.90829932  0.78690243     0.08100
C3372       C  0.31987189  0.85823350  0.75849719     0.04500
C3373       C  0.30691772  0.83837036  0.75609191    -0.20200
C3374       C  0.28320731  0.83874614  0.74774649    -0.12500
C3375       C  0.27209506  0.85976199  0.74198439     0.13200
C3376       C  0.28516052  0.87965396  0.74439800    -0.23000
C3377       C  0.34520437  0.85697121  0.76756603    -0.06000
H3378       H  0.31546212  0.82231686  0.76055753     0.14700
C3379       C  0.24708062  0.86187870  0.73228150    -0.16200
H3380       H  0.27687311  0.89572649  0.73963563     0.09000
H3381       H  0.33300967  0.93834293  0.81154702     0.06900
H3382       H  0.30702678  0.95091747  0.79770972     0.08100
H3383       H  0.33479733  0.96467778  0.79713019     0.07100
H3384       H  0.31880231  0.89356434  0.70606034     0.02000
H3385       H  0.34466354  0.87720793  0.71592449     0.02500
H3386       H  0.34867467  0.90272382  0.70025506     0.06000
H3387       H  0.35099169  0.83935888  0.77165794     0.05000
H3388       H  0.34634760  0.86736659  0.78332423    -0.00800
H3389       H  0.35785248  0.86342629  0.75475119     0.00700
H3390       H  0.23567471  0.87289184  0.74357312     0.04300
H3391       H  0.23827083  0.84547403  0.73027314     0.06300
H3392       H  0.24788625  0.86968712  0.71524202     0.07100
C3393       C  0.29989360  0.10256497  0.77807393    -0.22500
C3394       C  0.30137172  0.08902633  0.75847489     0.09500
C3395       C  0.28952421  0.09634433  0.73849669     0.09900
C3396       C  0.27848312  0.11807811  0.73800677    -0.17400
C3397       C  0.27845676  0.13237729  0.75722638    -0.27800
C3398       C  0.28840015  0.12398520  0.77787913     0.18200
C3399       C  0.31558237  0.06736823  0.75958322     0.12200
C3400       C  0.28791297  0.08104796  0.71795241    -0.12200
H3401       H  0.27038083  0.12412267  0.72238778     0.12500
C3402       C  0.28669469  0.13715434  0.80000532    -0.23000
H3403       H  0.30826044  0.09645835  0.79356156     0.08100
C3404       C  0.33892529  0.06504357  0.75017068     0.04500
C3405       C  0.35170937  0.04426809  0.75184349    -0.20200
C3406       C  0.34226545  0.02603238  0.76363819    -0.12500
C3407       C  0.31988429  0.02928606  0.77511852     0.13200
C3408       C  0.30665681  0.04971241  0.77245818    -0.23000
C3409       C  0.35089495  0.08477902  0.73939339    -0.06000
H3410       H  0.36920794  0.04230261  0.74384269     0.14700
C3411       C  0.31051726  0.01222125  0.79154802    -0.16200
H3412       H  0.28938269  0.05213817  0.78084142     0.09000
H3413       H  0.29808643  0.15217451  0.79949354     0.06900
H3414       H  0.29305982  0.12685441  0.81460271     0.08100
H3415       H  0.26768960  0.14246514  0.80340115     0.07100
H3416       H  0.27819842  0.06564775  0.72255995     0.02000
H3417       H  0.30604665  0.07591831  0.71162532     0.02500
H3418       H  0.27801773  0.08944380  0.70383258     0.06000
H3419       H  0.36943072  0.08018796  0.73356950     0.05000
H3420       H  0.35206460  0.09880254  0.75199300    -0.00800
H3421       H  0.34055876  0.09088022  0.72449657     0.00700
H3422       H  0.29501754  0.01928942  0.80152514     0.04300
H3423       H  0.32486162  0.00726042  0.80379095     0.06300
H3424       H  0.30403230  0.99711344  0.78251828     0.07100
C3425       C  0.42764761  0.00206977  0.83559755    -0.22500
C3426       C  0.41342212  0.99586039  0.85412839     0.09500
C3427       C  0.39033266  0.98748341  0.84990835     0.09900
C3428       C  0.38227674  0.98521183  0.82740356    -0.17400
C3429       C  0.39691783  0.99030049  0.80869349    -0.27800
C3430       C  0.41997205  0.99897071  0.81298314     0.18200
C3431       C  0.42356544  0.99702019  0.87763654     0.12200
C3432       C  0.37450808  0.97999511  0.86903820    -0.12200
H3433       H  0.36451499  0.97879290  0.82437809     0.12500
C3434       C  0.43757481  0.00391574  0.79441177    -0.23000
H3435       H  0.44535397  0.00858565  0.83879836     0.08100
C3436       C  0.44241880  0.98213797  0.88465772     0.04500
C3437       C  0.45136553  0.98369555  0.90696717    -0.20200
C3438       C  0.44214790  0.99989795  0.92261861    -0.12500
C3439       C  0.42288105  0.01455157  0.91564415     0.13200
C3440       C  0.41393370  0.01290945  0.89329543    -0.23000
C3441       C  0.45289531  0.96429408  0.86873951    -0.06000
H3442       H  0.46600259  0.97236791  0.91209696     0.14700
C3443       C  0.41115832  0.03159746  0.93168785    -0.16200
H3444       H  0.39938095  0.02421187  0.88791699     0.09000
H3445       H  0.45424891  0.99338677  0.79674082     0.06900
H3446       H  0.44217946  0.02202085  0.79520084     0.08100
H3447       H  0.43056271  0.00018616  0.77731945     0.07100
H3448       H  0.36973619  0.99454677  0.88036599     0.02000
H3449       H  0.38411394  0.96669535  0.87898203     0.02500
H3450       H  0.35748953  0.97291003  0.86264681     0.06000
H3451       H  0.46682415  0.95351104  0.87720657     0.05000
H3452       H  0.46148758  0.97232550  0.85399431    -0.00800
H3453       H  0.43844175  0.95322134  0.86261757     0.00700
H3454       H  0.42402928  0.04481871  0.93617113     0.04300
H3455       H  0.40507977  0.02308588  0.94730204     0.06300
H3456       H  0.39521755  0.04022728  0.92391962     0.07100
C3457       C  0.41396668  0.01144323  0.68734277    -0.22500
C3458       C  0.43864941  0.00598369  0.68818937     0.09500
C3459       C  0.44845492  0.99703591  0.70844559     0.09900
C3460       C  0.43312886  0.99280529  0.72698400    -0.17400
C3461       C  0.40819217  0.99747943  0.72582927    -0.27800
C3462       C  0.39860447  0.00705226  0.70565830     0.18200
C3463       C  0.45287323  0.00707044  0.66666011     0.12200
C3464       C  0.47499217  0.99150986  0.71025650    -0.12200
H3465       H  0.44051126  0.98475309  0.74196612     0.12500
C3466       C  0.37208198  0.01180810  0.70225304    -0.23000
H3467       H  0.40637049  0.01809177  0.67173259     0.08100
C3468       C  0.45458088  0.98827446  0.65177326     0.04500
C3469       C  0.46543565  0.99046586  0.63039038    -0.20200
C3470       C  0.47411192  0.01118797  0.62271624    -0.12500
C3471       C  0.47286264  0.03004402  0.63803346     0.13200
C3472       C  0.46247648  0.02756642  0.65979856    -0.23000
C3473       C  0.44382184  0.96608096  0.65796534    -0.06000
H3474       H  0.46612427  0.97594611  0.61907415     0.14700
C3475       C  0.48064846  0.05341232  0.63208736    -0.16200
H3476       H  0.46087682  0.04208191  0.67116092     0.09000
H3477       H  0.36568816  0.00174807  0.68753725     0.06900
H3478       H  0.36891199  0.03003982  0.69871898     0.08100
H3479       H  0.36106420  0.00753063  0.71713361     0.07100
H3480       H  0.48525083  0.00707634  0.70769555     0.02000
H3481       H  0.48054207  0.97879065  0.69714015     0.02500
H3482       H  0.47978245  0.98458019  0.72717112     0.06000
H3483       H  0.44641707  0.95317424  0.64427663     0.05000
H3484       H  0.42418806  0.96855178  0.66091788    -0.00800
H3485       H  0.45236405  0.95936917  0.67361429     0.00700
H3486       H  0.46504669  0.06548758  0.63373995     0.04300
H3487       H  0.48762473  0.05491893  0.61469901     0.06300
H3488       H  0.49490302  0.05867598  0.64406438     0.07100
C3489       C  0.38899432  0.79765001  0.17033899    -0.22500
C3490       C  0.39590395  0.77797162  0.15814360     0.09500
C3491       C  0.37945420  0.76045428  0.15583003     0.09900
C3492       C  0.35658175  0.76292635  0.16574365    -0.17400
C3493       C  0.34950523  0.78232657  0.17851973    -0.27800
C3494       C  0.36600293  0.80009859  0.18056109     0.18200
C3495       C  0.42015687  0.77581434  0.14737246     0.12200
C3496       C  0.38620000  0.73882563  0.14325057    -0.12200
H3497       H  0.34421640  0.74924439  0.16374501     0.12500
C3498       C  0.35988892  0.82138318  0.19385177    -0.23000
H3499       H  0.40170617  0.81109184  0.17193218     0.08100
C3500       C  0.42338861  0.78062358  0.12413164     0.04500
C3501       C  0.44537722  0.77473312  0.11350318    -0.20200
C3502       C  0.46423969  0.76421521  0.12558582    -0.12500
C3503       C  0.46155366  0.76048230  0.14907778     0.13200
C3504       C  0.43949396  0.76633396  0.15976002    -0.23000
C3505       C  0.40335446  0.79137480  0.11040317    -0.06000
H3506       H  0.44758069  0.77757469  0.09546650     0.14700
C3507       C  0.48166345  0.74958313  0.16257759    -0.16200
H3508       H  0.43696231  0.76263396  0.17757931     0.09000
H3509       H  0.37515357  0.83305490  0.19424249     0.06900
H3510       H  0.35542022  0.81715868  0.21166312     0.08100
H3511       H  0.34435966  0.83045394  0.18588494     0.07100
H3512       H  0.40193403  0.73043286  0.15158310     0.02000
H3513       H  0.39086328  0.74245489  0.12536191     0.02500
H3514       H  0.37123732  0.72681428  0.14308641     0.06000
H3515       H  0.40893427  0.79416667  0.09255537     0.05000
H3516       H  0.39797815  0.80798864  0.11807106    -0.00800
H3517       H  0.38754868  0.78038600  0.11013068     0.00700
H3518       H  0.49778581  0.76016302  0.16182036     0.04300
H3519       H  0.48626208  0.73255829  0.15541977     0.06300
H3520       H  0.47661752  0.74765387  0.18069750     0.07100
C3521       C  0.48989918  0.68912561  0.03745756    -0.22500
C3522       C  0.50431391  0.66995639  0.04185961     0.09500
C3523       C  0.51842067  0.66930917  0.06172534     0.09900
C3524       C  0.51861466  0.68833608  0.07619790    -0.17400
C3525       C  0.50470940  0.70816021  0.07162414    -0.27800
C3526       C  0.48899703  0.70773928  0.05239831     0.18200
C3527       C  0.50263824  0.64996776  0.02654920     0.12200
C3528       C  0.53277462  0.64827305  0.06803454    -0.12200
H3529       H  0.52931343  0.68704532  0.09138385     0.12500
C3530       C  0.47075031  0.72625649  0.04662811    -0.23000
H3531       H  0.47859761  0.68928465  0.02244424     0.08100
C3532       C  0.48175925  0.63707370  0.02614702     0.04500
C3533       C  0.48160471  0.61720773  0.01309707    -0.20200
C3534       C  0.50217455  0.60904908  0.00122715    -0.12500
C3535       C  0.52274264  0.62263246  0.00070758     0.13200
C3536       C  0.52252852  0.64311209  0.01316421    -0.23000
C3537       C  0.46007090  0.64342158  0.04055175    -0.06000
H3538       H  0.46557917  0.60723670  0.01329275     0.14700
C3539       C  0.54533084  0.61529425  0.98817472    -0.16200
H3540       H  0.53834992  0.65336492  0.01331288     0.09000
H3541       H  0.45271424  0.71888349  0.04484874     0.06900
H3542       H  0.47566877  0.73393772  0.03020041     0.08100
H3543       H  0.46882115  0.73986270  0.05951197     0.07100
H3544       H  0.54652672  0.64422071  0.05482263     0.02000
H3545       H  0.52057497  0.63386373  0.06959557     0.02500
H3546       H  0.54227474  0.65034109  0.08448228     0.06000
H3547       H  0.44584454  0.63071510  0.03910639     0.05000
H3548       H  0.45212640  0.65988799  0.03510807    -0.00800
H3549       H  0.46542039  0.64459152  0.05869004     0.00700
H3550       H  0.55958372  0.62795255  0.98986999     0.04300
H3551       H  0.54136724  0.61319312  0.96980612     0.06300
H3552       H  0.55254108  0.59910090  0.99511968     0.07100
C3553       C  0.52682940  0.81738223  0.04280661    -0.22500
C3554       C  0.51018210  0.83438010  0.04956753     0.09500
C3555       C  0.49421422  0.83033269  0.06767407     0.09900
C3556       C  0.49537442  0.80937641  0.07860205    -0.17400
C3557       C  0.51242078  0.79252113  0.07223442    -0.27800
C3558       C  0.52873351  0.79679984  0.05432315     0.18200
C3559       C  0.51121680  0.85695238  0.03890151     0.12200
C3560       C  0.47636696  0.84827711  0.07591650    -0.12200
H3561       H  0.48281701  0.80611625  0.09217982     0.12500
C3562       C  0.54927393  0.78083552  0.04765000    -0.23000
H3563       H  0.53919758  0.82061264  0.02904571     0.08100
C3564       C  0.53041697  0.87135726  0.04349076     0.04500
C3565       C  0.52933385  0.89352914  0.03539097    -0.20200
C3566       C  0.50931622  0.90196113  0.02313533    -0.12500
C3567       C  0.49073986  0.88701693  0.01740122     0.13200
C3568       C  0.49208718  0.86464319  0.02522732    -0.23000
C3569       C  0.55154093  0.86377712  0.05788163    -0.06000
H3570       H  0.54384871  0.90467717  0.03952647     0.14700
C3571       C  0.46879838  0.89468421  0.00423134    -0.16200
H3572       H  0.47763647  0.85330867  0.02146970     0.09000
H3573       H  0.56638843  0.79002085  0.04817595     0.06900
H3574       H  0.54643923  0.77441081  0.03008854     0.08100
H3575       H  0.55165185  0.76634411  0.05922459     0.07100
H3576       H  0.46362770  0.85286596  0.06210968     0.02000
H3577       H  0.48603426  0.86351910  0.08145348     0.02500
H3578       H  0.46565213  0.84240482  0.09053088     0.06000
H3579       H  0.56433422  0.87757303  0.06071456     0.05000
H3580       H  0.56156617  0.84958000  0.04935659    -0.00800
H3581       H  0.54511533  0.85823182  0.07473301     0.00700
H3582       H  0.45590810  0.88088302  0.00192990     0.04300
H3583       H  0.47417893  0.90028775  0.98707444     0.06300
H3584       H  0.45926640  0.90875831  0.01346920     0.07100
C3585       C  0.62347822  0.93014012  0.99395720    -0.22500
C3586       C  0.64207298  0.93342359  0.00950624     0.09500
C3587       C  0.63818817  0.94764609  0.02862674     0.09900
C3588       C  0.61564288  0.95871367  0.03156690    -0.17400
C3589       C  0.59714957  0.95576154  0.01568492    -0.27800
C3590       C  0.60092099  0.94083216  0.99698504     0.18200
C3591       C  0.66506004  0.92079424  0.00585833     0.12200
C3592       C  0.65791298  0.95117008  0.04569542    -0.12200
H3593       H  0.61263933  0.97010875  0.04590642     0.12500
C3594       C  0.58138304  0.93528237  0.98023653    -0.23000
H3595       H  0.62647699  0.91878988  0.97956649     0.08100
C3596       C  0.66796345  0.89823672  0.01298818     0.04500
C3597       C  0.68955143  0.88639311  0.00823094    -0.20200
C3598       C  0.70813853  0.89653905  0.99636294    -0.12500
C3599       C  0.70519255  0.91904493  0.98896903     0.13200
C3600       C  0.68365644  0.93104015  0.99403272    -0.23000
C3601       C  0.64812101  0.88657889  0.02524748    -0.06000
H3602       H  0.69171849  0.86887831  0.01323459     0.14700
C3603       C  0.72406447  0.93060945  0.97533738    -0.16200
H3604       H  0.68112163  0.94829033  0.98830128     0.09000
H3605       H  0.57930932  0.91669011  0.97948265     0.06900
H3606       H  0.58641216  0.94123460  0.96310763     0.08100
H3607       H  0.56357413  0.94289813  0.98487149     0.07100
H3608       H  0.67366934  0.95846939  0.03717471     0.02000
H3609       H  0.66347418  0.93474517  0.05329700     0.02500
H3610       H  0.65197805  0.96286592  0.05962418     0.06000
H3611       H  0.65353223  0.86900271  0.02984572     0.05000
H3612       H  0.63196816  0.88587083  0.01421967    -0.00800
H3613       H  0.64340843  0.89600647  0.04112227     0.00700
H3614       H  0.71629383  0.93605203  0.95883841     0.04300
H3615       H  0.74002128  0.91949808  0.97165039     0.06300
H3616       H  0.73013244  0.94572089  0.98481145     0.07100
C3617       C  0.86596786  0.93808502  0.98224644    -0.22500
C3618       C  0.85696413  0.92981813  0.00266723     0.09500
C3619       C  0.86942598  0.93347653  0.02313854     0.09900
C3620       C  0.89095509  0.94513585  0.02265759    -0.17400
C3621       C  0.90027228  0.95317693  0.00217166    -0.27800
C3622       C  0.88726105  0.95014409  0.98175088     0.18200
C3623       C  0.83487249  0.91665961  0.00203640     0.12200
C3624       C  0.85999610  0.92508323  0.04542144    -0.12200
H3625       H  0.90079351  0.94767959  0.03832937     0.12500
C3626       C  0.89452385  0.96015577  0.95940141    -0.23000
H3627       H  0.85610973  0.93534147  0.96661528     0.08100
C3628       C  0.81182462  0.92716545  0.00050470     0.04500
C3629       C  0.79154717  0.91366939  0.99883808    -0.20200
C3630       C  0.79401620  0.89001469  0.99847797    -0.12500
C3631       C  0.81707958  0.87964748  0.00130969     0.13200
C3632       C  0.83724482  0.89310831  0.00264879    -0.23000
C3633       C  0.80875076  0.95252367  0.00037723    -0.06000
H3634       H  0.77385230  0.92158330  0.99703675     0.14700
C3635       C  0.82104590  0.85451441  0.00349878    -0.16200
H3636       H  0.85499927  0.88517733  0.00426333     0.09000
H3637       H  0.87934364  0.97072973  0.95269900     0.06900
H3638       H  0.89883482  0.94637810  0.94696975     0.08100
H3639       H  0.91015314  0.97121823  0.96075513     0.07100
H3640       H  0.85904642  0.90638652  0.04487878     0.02000
H3641       H  0.84173556  0.93255167  0.04865868     0.02500
H3642       H  0.87175397  0.92977273  0.05986284     0.06000
H3643       H  0.78949702  0.95797716  0.99931744     0.05000
H3644       H  0.81825499  0.95944225  0.98552108    -0.00800
H3645       H  0.81634745  0.95973568  0.01621953     0.00700
H3646       H  0.83119682  0.84773712  0.98853586     0.04300
H3647       H  0.80399364  0.84561786  0.00503865     0.06300
H3648       H  0.83153547  0.85082798  0.01913999     0.07100
C3649       C  0.75250550  0.83987391  0.12308005    -0.22500
C3650       C  0.73522587  0.83050344  0.10878717     0.09500
C3651       C  0.71840543  0.81564223  0.11781926     0.09900
C3652       C  0.71992871  0.80971297  0.14084899    -0.17400
C3653       C  0.73812764  0.81806875  0.15485555    -0.27800
C3654       C  0.75415361  0.83389976  0.14602836     0.18200
C3655       C  0.73636490  0.83528257  0.08414497     0.12200
C3656       C  0.69936785  0.80556268  0.10299079    -0.12200
H3657       H  0.70775284  0.79749698  0.14760833     0.12500
C3658       C  0.77323260  0.84472350  0.16029238    -0.23000
H3659       H  0.76521640  0.85149252  0.11611575     0.08100
C3660       C  0.72542196  0.85481619  0.07485979     0.04500
C3661       C  0.72845807  0.85921935  0.05167144    -0.20200
C3662       C  0.74227514  0.84461348  0.03737054    -0.12500
C3663       C  0.75316699  0.82484628  0.04688232     0.13200
C3664       C  0.74998987  0.82052905  0.07012305    -0.23000
C3665       C  0.71074561  0.87110597  0.08949041    -0.06000
H3666       H  0.72007013  0.87437648  0.04479956     0.14700
C3667       C  0.76914066  0.80866431  0.03332793    -0.16200
H3668       H  0.75852531  0.80566891  0.07758518     0.09000
H3669       H  0.77070190  0.86339232  0.15975023     0.06900
H3670       H  0.79130443  0.83997811  0.15339474     0.08100
H3671       H  0.77256885  0.83974199  0.17837236     0.07100
H3672       H  0.70796095  0.79565581  0.08888783     0.02000
H3673       H  0.68771935  0.81925457  0.09579526     0.02500
H3674       H  0.68778971  0.79411432  0.11268219     0.06000
H3675       H  0.70347708  0.88563367  0.07957518     0.05000
H3676       H  0.72210348  0.87783198  0.10335670    -0.00800
H3677       H  0.69535431  0.86230357  0.09701664     0.00700
H3678       H  0.77850367  0.79613408  0.04439601     0.04300
H3679       H  0.78316154  0.81797941  0.02431505     0.06300
H3680       H  0.75834292  0.79886679  0.02113788     0.07100
C3681       C  0.69330642  0.89523881  0.27709449    -0.22500
C3682       C  0.69792478  0.91144251  0.26057865     0.09500
C3683       C  0.71540531  0.90657997  0.24363343     0.09900
C3684       C  0.72711176  0.88517692  0.24300101    -0.17400
C3685       C  0.72193886  0.86873193  0.25909465    -0.27800
C3686       C  0.70507052  0.87388982  0.27650606     0.18200
C3687       C  0.68397665  0.93323388  0.26130344     0.12200
C3688       C  0.72177647  0.92396738  0.22630776    -0.12200
H3689       H  0.73992482  0.88104866  0.22958261     0.12500
C3690       C  0.69915412  0.85670422  0.29417939    -0.23000
H3691       H  0.68005148  0.89916783  0.29018713     0.08100
C3692       C  0.66367612  0.93709334  0.24727732     0.04500
C3693       C  0.65071164  0.95779017  0.24897355    -0.20200
C3694       C  0.65663527  0.97405127  0.26534872    -0.12500
C3695       C  0.67669681  0.97003114  0.27969383     0.13200
C3696       C  0.69033778  0.94979547  0.27722752    -0.23000
C3697       C  0.65457581  0.91878994  0.23179730    -0.06000
H3698       H  0.63486302  0.96068057  0.23855366     0.14700
C3699       C  0.68397217  0.98649960  0.29798060    -0.16200
H3700       H  0.70567759  0.94663568  0.28823138     0.09000
H3701       H  0.69187158  0.84144591  0.28586218     0.06900
H3702       H  0.68551371  0.86344462  0.30650183     0.08100
H3703       H  0.71567421  0.85184423  0.30375253     0.07100
H3704       H  0.72833343  0.93928171  0.23508673     0.02000
H3705       H  0.70583990  0.92876952  0.21594370     0.02500
H3706       H  0.73612662  0.91751642  0.21457724     0.06000
H3707       H  0.63846986  0.92464528  0.22210605     0.05000
H3708       H  0.64950436  0.90407055  0.24209537    -0.00800
H3709       H  0.66859519  0.91323636  0.21939713     0.00700
H3710       H  0.68313438  0.97826643  0.31480401     0.04300
H3711       H  0.67230286  0.00200727  0.29866435     0.06300
H3712       H  0.70270664  0.99167919  0.29486725     0.07100
C3713       C  0.89333172  0.78820189  0.29975041    -0.22500
C3714       C  0.89710599  0.77654322  0.32013331     0.09500
C3715       C  0.87724719  0.76754144  0.33149113     0.09900
C3716       C  0.85429671  0.76931692  0.32165548    -0.17400
C3717       C  0.85050014  0.78029024  0.30090280    -0.27800
C3718       C  0.87025571  0.79018051  0.28992214     0.18200
C3719       C  0.92193421  0.77284825  0.32912122     0.12200
C3720       C  0.88037412  0.75570651  0.35387701    -0.12200
H3721       H  0.83923137  0.76164866  0.32998927     0.12500
C3722       C  0.86802363  0.80189026  0.26736783    -0.23000
H3723       H  0.90859241  0.79518337  0.29110108     0.08100
C3724       C  0.93556124  0.75295412  0.32383193     0.04500
C3725       C  0.95695082  0.74805499  0.33584191    -0.20200
C3726       C  0.96500338  0.76250525  0.35318724    -0.12500
C3727       C  0.95175283  0.78288733  0.35776132     0.13200
C3728       C  0.93056696  0.78790032  0.34548874    -0.23000
C3729       C  0.92695226  0.73648419  0.30614663    -0.06000
H3730       H  0.96693341  0.73238108  0.33235488     0.14700
C3731       C  0.95863935  0.79856438  0.37676625    -0.16200
H3732       H  0.91987401  0.80301198  0.34961286     0.09000
H3733       H  0.88018817  0.79329260  0.25480189     0.06900
H3734       H  0.87334724  0.81972735  0.26936129     0.08100
H3735       H  0.84960279  0.80189029  0.26027468     0.07100
H3736       H  0.88752628  0.76762469  0.36671580     0.02000
H3737       H  0.89313144  0.74102478  0.35191527     0.02500
H3738       H  0.86307249  0.74942156  0.36034938     0.06000
H3739       H  0.93972978  0.72183342  0.30394269     0.05000
H3740       H  0.92504860  0.74507968  0.28954803    -0.00800
H3741       H  0.90924644  0.72997071  0.31122488     0.00700
H3742       H  0.94570935  0.81314441  0.37860331     0.04300
H3743       H  0.97660415  0.80542612  0.37344251     0.06300
H3744       H  0.95874258  0.78924022  0.39299661     0.07100
C3745       C  0.78716278  0.62525684  0.22448946    -0.22500
C3746       C  0.80095066  0.61681774  0.24263801     0.09500
C3747       C  0.80484841  0.63088315  0.26169201     0.09900
C3748       C  0.79546219  0.65318253  0.26194168    -0.17400
C3749       C  0.78189406  0.66203784  0.24371306    -0.27800
C3750       C  0.77754769  0.64763669  0.22474320     0.18200
C3751       C  0.81299641  0.59399157  0.24079754     0.12200
C3752       C  0.81912641  0.62237922  0.28178008    -0.12200
H3753       H  0.79905053  0.66387387  0.27649190     0.12500
C3754       C  0.76388319  0.65589645  0.20421584    -0.23000
H3755       H  0.78442672  0.61442360  0.20980930     0.08100
C3756       C  0.80157958  0.57408560  0.24737252     0.04500
C3757       C  0.81488713  0.55340190  0.24775368    -0.20200
C3758       C  0.83945060  0.55229566  0.24213240    -0.12500
C3759       C  0.85058497  0.57217107  0.23479296     0.13200
C3760       C  0.83719279  0.59264232  0.23411798    -0.23000
C3761       C  0.77569603  0.57490070  0.25490265    -0.06000
H3762       H  0.80641452  0.53830992  0.25359510     0.14700
C3763       C  0.87674123  0.57262955  0.22811641    -0.16200
H3764       H  0.84596658  0.60791725  0.22908550     0.09000
H3765       H  0.76330593  0.64275116  0.19063003     0.06900
H3766       H  0.77275194  0.67079931  0.19708953     0.08100
H3767       H  0.74502374  0.66045547  0.20896775     0.07100
H3768       H  0.83766873  0.61733231  0.27637967     0.02000
H3769       H  0.81029926  0.60754993  0.28911474     0.02500
H3770       H  0.82044761  0.63549233  0.29532751     0.06000
H3771       H  0.76955991  0.55794314  0.25977877     0.05000
H3772       H  0.76408514  0.58121833  0.24086934    -0.00800
H3773       H  0.77347640  0.58639702  0.26984332     0.00700
H3774       H  0.87832259  0.57959649  0.21076192     0.04300
H3775       H  0.88571631  0.55571447  0.22789297     0.06300
H3776       H  0.88648445  0.58357378  0.24022604     0.07100
C3777       C  0.58628028  0.76888501  0.14562673    -0.22500
C3778       C  0.58810676  0.75314789  0.16315970     0.09500
C3779       C  0.56919159  0.73828381  0.16674062     0.09900
C3780       C  0.54959838  0.73844050  0.15163503    -0.17400
C3781       C  0.54822857  0.75347017  0.13328685    -0.27800
C3782       C  0.56664718  0.76930358  0.13063501     0.18200
C3783       C  0.61078826  0.75163167  0.17643530     0.12200
C3784       C  0.56998117  0.72202875  0.18623071    -0.12200
H3785       H  0.53552280  0.72637292  0.15379890     0.12500
C3786       C  0.56717643  0.78614540  0.11170417    -0.23000
H3787       H  0.60079927  0.78042685  0.14309862     0.08100
C3788       C  0.63098980  0.73895992  0.16826272     0.04500
C3789       C  0.65284370  0.73958079  0.18020208    -0.20200
C3790       C  0.65480487  0.75217977  0.20042609    -0.12500
C3791       C  0.63396258  0.76344206  0.20949079     0.13200
C3792       C  0.61239245  0.76347192  0.19707355    -0.23000
C3793       C  0.62944162  0.72483623  0.14689564    -0.06000
H3794       H  0.66864031  0.73070601  0.17337540     0.14700
C3795       C  0.63349930  0.77486239  0.23252877    -0.16200
H3796       H  0.59664893  0.77265513  0.20362224     0.09000
H3797       H  0.58376553  0.78324030  0.10143154     0.06900
H3798       H  0.56714973  0.80353175  0.11898317     0.08100
H3799       H  0.55179145  0.78507367  0.10013606     0.07100
H3800       H  0.57084446  0.73159896  0.20253144     0.02000
H3801       H  0.58610034  0.71057860  0.18470141     0.02500
H3802       H  0.55377669  0.71152897  0.18662792     0.06000
H3803       H  0.64680497  0.71587285  0.14292834     0.05000
H3804       H  0.62455143  0.73573443  0.13228847    -0.00800
H3805       H  0.61552666  0.71196146  0.14900736     0.00700
H3806       H  0.62967847  0.79325289  0.23058800     0.04300
H3807       H  0.65050145  0.77238636  0.24209514     0.06300
H3808       H  0.61905501  0.76764394  0.24300372     0.07100
C3809       C  0.60992033  0.59432770  0.49581876    -0.22500
C3810       C  0.62744746  0.58696311  0.48009967     0.09500
C3811       C  0.62090074  0.57246058  0.46200931     0.09900
C3812       C  0.59723294  0.56471174  0.46082473    -0.17400
C3813       C  0.57992076  0.57143045  0.47711078    -0.27800
C3814       C  0.58615321  0.58733917  0.49419604     0.18200
C3815       C  0.65236696  0.59501997  0.48281487     0.12200
C3816       C  0.63882851  0.56513930  0.44397379    -0.12200
H3817       H  0.59257100  0.55253609  0.44778962     0.12500
C3818       C  0.56818812  0.59748217  0.51094988    -0.23000
H3819       H  0.61481734  0.60570616  0.50950661     0.08100
C3820       C  0.65764316  0.61798353  0.47995167     0.04500
C3821       C  0.68138015  0.62477737  0.48254475    -0.20200
C3822       C  0.70035795  0.60907655  0.48652299    -0.12500
C3823       C  0.69514499  0.58608586  0.48937897     0.13200
C3824       C  0.67107090  0.57945534  0.48815503    -0.23000
C3825       C  0.63861554  0.63516746  0.47280448    -0.06000
H3826       H  0.68540963  0.64240353  0.48018156     0.14700
C3827       C  0.71487798  0.56834263  0.49222043    -0.16200
H3828       H  0.66688285  0.56188660  0.49057295     0.09000
H3829       H  0.56867129  0.61620812  0.51035444     0.06900
H3830       H  0.57284608  0.59193240  0.52839979     0.08100
H3831       H  0.54944888  0.59292693  0.50715207     0.07100
H3832       H  0.65381208  0.55503175  0.45159120     0.02000
H3833       H  0.64612799  0.58024569  0.43570744     0.02500
H3834       H  0.63047085  0.55454864  0.43063001     0.06000
H3835       H  0.64626259  0.65203503  0.47002631     0.05000
H3836       H  0.62453922  0.63719532  0.48607269    -0.00800
H3837       H  0.63027732  0.62961077  0.45662330     0.00700
H3838       H  0.72473804  0.57129790  0.50827604     0.04300
H3839       H  0.72758215  0.56883960  0.47767440     0.06300
H3840       H  0.70761217  0.55109177  0.49286023     0.07100
C3841       C  0.81360867  0.56675341  0.51694314    -0.22500
C3842       C  0.82146758  0.55340223  0.49836674     0.09500
C3843       C  0.80843575  0.55450026  0.47784156     0.09900
C3844       C  0.78915200  0.57024969  0.47579539    -0.17400
C3845       C  0.78299658  0.58552400  0.49353054    -0.27800
C3846       C  0.79467287  0.58296007  0.51478314     0.18200
C3847       C  0.84618623  0.54294432  0.49904720     0.12200
C3848       C  0.81599700  0.54021665  0.45758125    -0.12200
H3849       H  0.77996539  0.57182079  0.45962450     0.12500
C3850       C  0.78885267  0.59834551  0.53470509    -0.23000
H3851       H  0.82374782  0.56584634  0.53264367     0.08100
C3852       C  0.86610566  0.55639308  0.49475086     0.04500
C3853       C  0.88932442  0.54663200  0.49510598    -0.20200
C3854       C  0.89367894  0.52342518  0.49922865    -0.12500
C3855       C  0.87355085  0.50987222  0.50369846     0.13200
C3856       C  0.85004737  0.51984916  0.50353678    -0.23000
C3857       C  0.86287050  0.58118248  0.48936738    -0.06000
H3858       H  0.90425353  0.55748678  0.49197396     0.14700
C3859       C  0.87647926  0.48495214  0.50818182    -0.16200
H3860       H  0.83461670  0.50959779  0.50674311     0.09000
H3861       H  0.79099440  0.61618820  0.52982909     0.06900
H3862       H  0.80098078  0.59490628  0.54932527     0.08100
H3863       H  0.77023766  0.59575431  0.54062956     0.07100
H3864       H  0.81541263  0.52206052  0.46198693     0.02000
H3865       H  0.83459103  0.54422713  0.45244271     0.02500
H3866       H  0.80397567  0.54322935  0.44278705     0.06000
H3867       H  0.88030730  0.58915252  0.48593451     0.05000
H3868       H  0.85422666  0.59033588  0.50392226    -0.00800
H3869       H  0.85141020  0.58328720  0.47405133     0.00700
H3870       H  0.85885133  0.47700569  0.51071448     0.04300
H3871       H  0.88725245  0.48220905  0.52383091     0.06300
H3872       H  0.88555796  0.47633939  0.49352133     0.07100
C3873       C  0.78682374  0.67937209  0.42281367    -0.22500
C3874       C  0.77145232  0.67820163  0.40402664     0.09500
C3875       C  0.75267435  0.66283431  0.40414159     0.09900
C3876       C  0.74901170  0.64970669  0.42335322    -0.17400
C3877       C  0.76290262  0.65198722  0.44332183    -0.27800
C3878       C  0.78335937  0.66594341  0.44212412     0.18200
C3879       C  0.77515523  0.69259844  0.38390739     0.12200
C3880       C  0.73618642  0.66035997  0.38395185    -0.12200
H3881       H  0.73550569  0.63713110  0.42197472     0.12500
C3882       C  0.80251442  0.66673852  0.46022051    -0.23000
H3883       H  0.80191083  0.69053116  0.42223004     0.08100
C3884       C  0.76537486  0.71481849  0.38304257     0.04500
C3885       C  0.76425358  0.72597603  0.36211279    -0.20200
C3886       C  0.77269273  0.71543801  0.34194652    -0.12500
C3887       C  0.78378800  0.69358154  0.34318147     0.13200
C3888       C  0.78499581  0.68255929  0.36418942    -0.23000
C3889       C  0.75528719  0.72637750  0.40405418    -0.06000
H3890       H  0.75610967  0.74282508  0.36139556     0.14700
C3891       C  0.79289029  0.68104540  0.32233035    -0.16200
H3892       H  0.79235896  0.66541912  0.36504008     0.09000
H3893       H  0.80027323  0.65435503  0.47386621     0.06900
H3894       H  0.80273335  0.68393837  0.46790540     0.08100
H3895       H  0.82035842  0.66279782  0.45238825     0.07100
H3896       H  0.74662140  0.65418487  0.36892935     0.02000
H3897       H  0.72735371  0.67693711  0.38004788     0.02500
H3898       H  0.72183060  0.64814788  0.38715197     0.06000
H3899       H  0.74814014  0.74368532  0.40041960     0.05000
H3900       H  0.76965716  0.72773848  0.41703917    -0.00800
H3901       H  0.74040235  0.71647791  0.41105235     0.00700
H3902       H  0.80799157  0.69012372  0.31464103     0.04300
H3903       H  0.77804562  0.67953218  0.30985499     0.06300
H3904       H  0.79967195  0.66370724  0.32635732     0.07100
C3905       C  0.58261029  0.48426265  0.81335892    -0.22500
C3906       C  0.59222649  0.50139005  0.82693614     0.09500
C3907       C  0.61050309  0.51472679  0.81800948     0.09900
C3908       C  0.61832374  0.51105132  0.79549302    -0.17400
C3909       C  0.60843104  0.49420166  0.78166356    -0.27800
C3910       C  0.59074345  0.48023130  0.79097839     0.18200
C3911       C  0.58318753  0.50487942  0.85057987     0.12200
C3912       C  0.62159258  0.53295218  0.83225113    -0.12200
H3913       H  0.63186043  0.52177392  0.78847128     0.12500
C3914       C  0.58068117  0.46046611  0.77816862    -0.23000
H3915       H  0.56888316  0.47374886  0.82039631     0.08100
C3916       C  0.56352674  0.51977482  0.85557593     0.04500
C3917       C  0.55536249  0.52220478  0.87813739    -0.20200
C3918       C  0.56632953  0.51000111  0.89587174    -0.12500
C3919       C  0.58678477  0.49582667  0.89092334     0.13200
C3920       C  0.59472218  0.49328543  0.86832324    -0.23000
C3921       C  0.55089528  0.53277623  0.83701042    -0.06000
H3922       H  0.53968059  0.53296992  0.88179240     0.14700
C3923       C  0.60110017  0.48355679  0.90900233    -0.16200
H3924       H  0.61015862  0.48224597  0.86451079     0.09000
H3925       H  0.56122633  0.46370831  0.77490576     0.06900
H3926       H  0.58289757  0.44496600  0.78850693     0.08100
H3927       H  0.58994180  0.45695227  0.76177900     0.07100
H3928       H  0.63027818  0.52533938  0.84744457     0.02000
H3929       H  0.60750499  0.54549302  0.83784908     0.02500
H3930       H  0.63545732  0.54202707  0.82265764     0.06000
H3931       H  0.53588168  0.54368952  0.84378426     0.05000
H3932       H  0.54338967  0.52083394  0.82439338    -0.00800
H3933       H  0.56378755  0.54376265  0.82836168     0.00700
H3934       H  0.59996367  0.46502659  0.90630784     0.04300
H3935       H  0.59503662  0.48786447  0.92648963     0.06300
H3936       H  0.62025751  0.48821430  0.90784543     0.07100
C3937       C  0.54629079  0.52587109  0.62575686    -0.22500
C3938       C  0.54604056  0.50555232  0.63763126     0.09500
C3939       C  0.53137478  0.48807152  0.62964985     0.09900
C3940       C  0.51951297  0.49036726  0.60854254    -0.17400
C3941       C  0.52146992  0.51006632  0.59553583    -0.27800
C3942       C  0.53390356  0.52856332  0.60511934     0.18200
C3943       C  0.56231549  0.50277118  0.65762708     0.12200
C3944       C  0.52798155  0.46722833  0.64361029    -0.12200
H3945       H  0.50927556  0.47647674  0.60191729     0.12500
C3946       C  0.53386591  0.55148335  0.59411378    -0.23000
H3947       H  0.55681982  0.53956098  0.63241916     0.08100
C3948       C  0.58445834  0.49065692  0.65572214     0.04500
C3949       C  0.59970711  0.48896286  0.67468621    -0.20200
C3950       C  0.59400658  0.49961227  0.69575269    -0.12500
C3951       C  0.57323363  0.51440204  0.69633260     0.13200
C3952       C  0.55718716  0.51479945  0.67778202    -0.23000
C3953       C  0.59274154  0.48057919  0.63326869    -0.06000
H3954       H  0.61680704  0.48009721  0.67236226     0.14700
C3955       C  0.56780903  0.53113887  0.71529359    -0.16200
H3956       H  0.54103843  0.52552297  0.67862580     0.09000
H3957       H  0.54494635  0.55092857  0.57846156     0.06900
H3958       H  0.54155932  0.56446707  0.60552249     0.08100
H3959       H  0.51512945  0.55709621  0.59005856     0.07100
H3960       H  0.52004992  0.47218240  0.66032730     0.02000
H3961       H  0.54543703  0.45818856  0.64650175     0.02500
H3962       H  0.51571135  0.45532778  0.63513072     0.06000
H3963       H  0.61085119  0.47224114  0.63454194     0.05000
H3964       H  0.59372506  0.49412912  0.62043875    -0.00800
H3965       H  0.58007981  0.46774878  0.62721014     0.00700
H3966       H  0.56473248  0.54822409  0.70803836     0.04300
H3967       H  0.58266239  0.53279343  0.72754247     0.06300
H3968       H  0.55129803  0.52631696  0.72442983     0.07100
C3969       C  0.68437990  0.42108876  0.71792134    -0.22500
C3970       C  0.67986262  0.40738028  0.73662004     0.09500
C3971       C  0.66582395  0.41631712  0.75485106     0.09900
C3972       C  0.65571224  0.43837802  0.75348922    -0.17400
C3973       C  0.65917034  0.45169620  0.73425689    -0.27800
C3974       C  0.67419588  0.44310348  0.71646553     0.18200
C3975       C  0.68975054  0.38365115  0.73666775     0.12200
C3976       C  0.66135059  0.40249272  0.77567615    -0.12200
H3977       H  0.64417452  0.44488581  0.76706405     0.12500
C3978       C  0.67984250  0.45717925  0.69604352    -0.23000
H3979       H  0.69551835  0.41432252  0.70417614     0.08100
C3980       C  0.67554186  0.36527162  0.73019668     0.04500
C3981       C  0.68505079  0.34306071  0.73206061    -0.20200
C3982       C  0.70884730  0.33874225  0.73923419    -0.12500
C3983       C  0.72350677  0.35723806  0.74443756     0.13200
C3984       C  0.71368863  0.37944382  0.74332960    -0.23000
C3985       C  0.65053355  0.36912025  0.72086842    -0.06000
H3986       H  0.67391978  0.32894717  0.72765287     0.14700
C3987       C  0.74921799  0.35361998  0.75192817    -0.16200
H3988       H  0.72465662  0.39361797  0.74788603     0.09000
H3989       H  0.69308311  0.44837871  0.68461119     0.06900
H3990       H  0.68759066  0.47336502  0.70169386     0.08100
H3991       H  0.66340434  0.46076218  0.68592618     0.07100
H3992       H  0.67877931  0.39751624  0.78363946     0.02000
H3993       H  0.65163094  0.38703096  0.77103258     0.02500
H3994       H  0.65035651  0.41211504  0.78847415     0.06000
H3995       H  0.64201616  0.35295244  0.71633414     0.05000
H3996       H  0.65138040  0.37947955  0.70529372    -0.00800
H3997       H  0.63890118  0.37810075  0.73356801     0.00700
H3998       H  0.75770618  0.36982429  0.75635625     0.04300
H3999       H  0.75991512  0.34547647  0.73799521     0.06300
H4000       H  0.74994679  0.34270203  0.76714484     0.07100
C4001       C  0.71664906  0.29268723  0.87968815    -0.22500
C4002       C  0.73611396  0.30657531  0.88422539     0.09500
C4003       C  0.75231752  0.31159343  0.86670155     0.09900
C4004       C  0.74934071  0.30172992  0.84521247    -0.17400
C4005       C  0.73049203  0.28708840  0.84084038    -0.27800
C4006       C  0.71363341  0.28275788  0.85814433     0.18200
C4007       C  0.74013721  0.31456194  0.90774351     0.12200
C4008       C  0.77285518  0.32717572  0.87074019    -0.12200
H4009       H  0.76222419  0.30492000  0.83186691     0.12500
C4010       C  0.69312150  0.26694980  0.85490901    -0.23000
H4011       H  0.70425415  0.28892335  0.89327006     0.08100
C4012       C  0.72654106  0.33275799  0.91727134     0.04500
C4013       C  0.73093720  0.33940590  0.93977567    -0.20200
C4014       C  0.74872756  0.32835231  0.95286213    -0.12500
C4015       C  0.76350138  0.31113880  0.94267691     0.13200
C4016       C  0.75853674  0.30407090  0.92043228    -0.23000
C4017       C  0.70761387  0.34524571  0.90361830    -0.06000
H4018       H  0.72014162  0.35309049  0.94727258     0.14700
C4019       C  0.78533392  0.30064810  0.95410062    -0.16200
H4020       H  0.76946282  0.29056891  0.91270030     0.09000
H4021       H  0.67579153  0.27631158  0.85797207     0.06900
H4022       H  0.69483136  0.25295724  0.86726797     0.08100
H4023       H  0.69252612  0.25932910  0.83765430     0.07100
H4024       H  0.78523073  0.32001547  0.88375981     0.02000
H4025       H  0.76570983  0.34393501  0.87669735     0.02500
H4026       H  0.78343976  0.32969851  0.85500805     0.06000
H4027       H  0.69903416  0.35941818  0.91350208     0.05000
H4028       H  0.69335350  0.33353691  0.89844268    -0.00800
H4029       H  0.71592716  0.35233473  0.88819818     0.00700
H4030       H  0.78287362  0.28225426  0.95619519     0.04300
H4031       H  0.78922976  0.30823649  0.97091143     0.06300
H4032       H  0.80142492  0.30311352  0.94331030     0.07100
C4033       C  0.56965213  0.25257702  0.84945666    -0.22500
C4034       C  0.57392208  0.23148168  0.83893653     0.09500
C4035       C  0.55793565  0.21393343  0.84291502     0.09900
C4036       C  0.53862907  0.21763450  0.85809265    -0.17400
C4037       C  0.53473944  0.23854372  0.86940629    -0.27800
C4038       C  0.55037713  0.25638774  0.86461716     0.18200
C4039       C  0.59617495  0.22792756  0.82512040     0.12200
C4040       C  0.56115841  0.19139127  0.83101138    -0.12200
H4041       H  0.52659098  0.20397825  0.86137330     0.12500
C4042       C  0.54836266  0.27931689  0.87579566    -0.23000
H4043       H  0.58201174  0.26603664  0.84637584     0.08100
C4044       C  0.59875028  0.23789272  0.80363877     0.04500
C4045       C  0.62109999  0.23624889  0.79252159    -0.20200
C4046       C  0.64099217  0.22476233  0.80224313    -0.12500
C4047       C  0.63822051  0.21423494  0.82353693     0.13200
C4048       C  0.61577961  0.21585735  0.83459057    -0.23000
C4049       C  0.57792294  0.25019387  0.79241117    -0.06000
H4050       H  0.62318960  0.24427546  0.77619660     0.14700
C4051       C  0.65865927  0.20233484  0.83578563    -0.16200
H4052       H  0.61381385  0.20838958  0.85120355     0.09000
H4053       H  0.54542338  0.29241906  0.86265519     0.06900
H4054       H  0.56524823  0.28276821  0.88509998     0.08100
H4055       H  0.53349887  0.28082563  0.88801583     0.07100
H4056       H  0.57877965  0.18340902  0.83558932     0.02000
H4057       H  0.56043343  0.19380029  0.81233776     0.02500
H4058       H  0.54685092  0.17962841  0.83575309     0.06000
H4059       H  0.58291756  0.25660222  0.77543361     0.05000
H4060       H  0.57180694  0.26486393  0.80304055    -0.00800
H4061       H  0.56282089  0.23853506  0.79015075     0.00700
H4062       H  0.66113987  0.21042671  0.85270445     0.04300
H4063       H  0.67603736  0.20293010  0.82668275     0.06300
H4064       H  0.65430753  0.18434319  0.83823009     0.07100
C4065       C  0.92795122  0.25093566  0.68442695    -0.22500
C4066       C  0.90776807  0.24588309  0.67120002     0.09500
C4067       C  0.91056855  0.24147652  0.64774448     0.09900
C4068       C  0.93337456  0.24288289  0.63786570    -0.17400
C4069       C  0.95345408  0.24867042  0.65084943    -0.27800
C4070       C  0.95085079  0.25244547  0.67447479     0.18200
C4071       C  0.88361082  0.24593505  0.68184723     0.12200
C4072       C  0.88936031  0.23582369  0.63304497    -0.12200
H4073       H  0.93540085  0.24045403  0.61966763     0.12500
C4074       C  0.97164174  0.25876369  0.68939134    -0.23000
H4075       H  0.92571539  0.25423386  0.70247427     0.08100
C4076       C  0.87490491  0.22651525  0.69219445     0.04500
C4077       C  0.85124836  0.22680951  0.70046625    -0.20200
C4078       C  0.83577383  0.24604818  0.69854186    -0.12500
C4079       C  0.84473391  0.26561604  0.68807077     0.13200
C4080       C  0.86856749  0.26525081  0.67997637    -0.23000
C4081       C  0.89048674  0.20535336  0.69416844    -0.06000
H4082       H  0.84486493  0.21174852  0.70849917     0.14700
C4083       C  0.82933862  0.28669264  0.68456844    -0.16200
H4084       H  0.87544151  0.27998515  0.67167395     0.09000
H4085       H  0.97379680  0.24627321  0.70322623     0.06900
H4086       H  0.96802465  0.27576918  0.69702037     0.08100
H4087       H  0.98890634  0.25907335  0.67998306     0.07100
H4088       H  0.87578535  0.24996441  0.63357330     0.02000
H4089       H  0.88105602  0.22024957  0.63929714     0.02500
H4090       H  0.89472925  0.23289999  0.61504493     0.06000
H4091       H  0.88082042  0.19155040  0.70252207     0.05000
H4092       H  0.90670795  0.20895648  0.70440872    -0.00800
H4093       H  0.89615014  0.19930840  0.67699935     0.00700
H4094       H  0.83900016  0.29961719  0.67487383     0.04300
H4095       H  0.82424479  0.29440341  0.70122220     0.06300
H4096       H  0.81294116  0.28251106  0.67482542     0.07100
C4097       C  0.73520370  0.16528953  0.61775669    -0.22500
C4098       C  0.75103414  0.17618613  0.60327621     0.09500
C4099       C  0.76572239  0.19329914  0.61186689     0.09900
C4100       C  0.76413700  0.19922736  0.63492239    -0.17400
C4101       C  0.74764704  0.18894047  0.64920139    -0.27800
C4102       C  0.73322249  0.17154630  0.64070340     0.18200
C4103       C  0.75007558  0.17102592  0.57877156     0.12200
C4104       C  0.78211770  0.20604561  0.59652769    -0.12200
H4105       H  0.77487977  0.21277214  0.64159026     0.12500
C4106       C  0.71551481  0.15945479  0.65527357    -0.23000
H4107       H  0.72385149  0.15227452  0.61094269     0.08100
C4108       C  0.76632401  0.15544927  0.56829447     0.04500
C4109       C  0.76466167  0.15160181  0.54480742    -0.20200
C4110       C  0.74681348  0.16263821  0.53177336    -0.12500
C4111       C  0.72974232  0.17733238  0.54265906     0.13200
C4112       C  0.73187856  0.18161407  0.56599481    -0.23000
C4113       C  0.78478968  0.14239547  0.58200305    -0.06000
H4114       H  0.77706392  0.13959768  0.53666746     0.14700
C4115       C  0.70850626  0.18759561  0.53020537    -0.16200
H4116       H  0.71908271  0.19306228  0.57446238     0.09000
H4117       H  0.71987575  0.14102485  0.65481684     0.06900
H4118       H  0.69703633  0.16242736  0.64858367     0.08100
H4119       H  0.71578819  0.16505528  0.67329921     0.07100
H4120       H  0.77141107  0.21438313  0.58290591     0.02000
H4121       H  0.79571278  0.19429484  0.58867302     0.02500
H4122       H  0.79181438  0.21931875  0.60597637     0.06000
H4123       H  0.79573502  0.13051463  0.57118014     0.05000
H4124       H  0.77560037  0.13241059  0.59510398    -0.00800
H4125       H  0.79715233  0.15413149  0.59052931     0.00700
H4126       H  0.69575562  0.19660627  0.54196463     0.04300
H4127       H  0.69850701  0.17416893  0.52131781     0.06300
H4128       H  0.71471455  0.20010109  0.51785327     0.07100
C4129       C  0.90148688  0.00770857  0.68132416    -0.22500
C4130       C  0.91921073  0.99096896  0.67637556     0.09500
C4131       C  0.92365095  0.97375479  0.69244555     0.09900
C4132       C  0.91004568  0.97352305  0.71271577    -0.17400
C4133       C  0.89188209  0.99000771  0.71748529    -0.27800
C4134       C  0.88769702  0.00741275  0.70144447     0.18200
C4135       C  0.93212252  0.99158743  0.65392726     0.12200
C4136       C  0.94247768  0.95539866  0.68810200    -0.12200
H4137       H  0.91351039  0.96023886  0.72491467     0.12500
C4138       C  0.86947430  0.02632441  0.70559860    -0.23000
H4139       H  0.89834467  0.02111568  0.66919187     0.08100
C4140       C  0.92000080  0.98738514  0.63326139     0.04500
C4141       C  0.93218098  0.98958267  0.61241983    -0.20200
C4142       C  0.95643199  0.99564816  0.61142680    -0.12500
C4143       C  0.96872772  0.99956198  0.63217150     0.13200
C4144       C  0.95644552  0.99741875  0.65305552    -0.23000
C4145       C  0.89423321  0.98017967  0.63315909    -0.06000
H4146       H  0.92267571  0.98641448  0.59668362     0.14700
C4147       C  0.99436503  0.00707468  0.63305171    -0.16200
H4148       H  0.96578346  0.00094431  0.66880096     0.09000
H4149       H  0.85106909  0.01976504  0.70619486     0.06900
H4150       H  0.86971782  0.03910684  0.69193964     0.08100
H4151       H  0.87362452  0.03503478  0.72172475     0.07100
H4152       H  0.96046175  0.96287000  0.68663919     0.02000
H4153       H  0.93830139  0.94622005  0.67210452     0.02500
H4154       H  0.94327541  0.94297080  0.70210159     0.06000
H4155       H  0.88777278  0.97663918  0.61566878     0.05000
H4156       H  0.88233402  0.99371213  0.64058766    -0.00800
H4157       H  0.89261757  0.96455018  0.64323409     0.00700
H4158       H  0.99511911  0.02329020  0.64265826     0.04300
H4159       H  0.00221406  0.00990682  0.61607827     0.06300
H4160       H  0.00569444  0.99414521  0.64187822     0.07100
C4161       C  0.91283260  0.00906132  0.88646927    -0.22500
C4162       C  0.92224459  0.99303134  0.87082329     0.09500
C4163       C  0.94292130  0.97997118  0.87660269     0.09900
C4164       C  0.95346873  0.98297228  0.89804257    -0.17400
C4165       C  0.94418358  0.99902806  0.91379387    -0.27800
C4166       C  0.92336925  0.01210434  0.90798850     0.18200
C4167       C  0.91055714  0.99065274  0.84824254     0.12200
C4168       C  0.95420953  0.96325203  0.85996280    -0.12200
H4169       H  0.96933868  0.97287597  0.90245857     0.12500
C4170       C  0.91115280  0.02863593  0.92422948    -0.23000
H4171       H  0.89690818  0.01904890  0.88196299     0.08100
C4172       C  0.89355777  0.97406083  0.84378636     0.04500
C4173       C  0.88303392  0.97265221  0.82208760    -0.20200
C4174       C  0.88838179  0.98794044  0.80451287    -0.12500
C4175       C  0.90484200  0.00535978  0.80987861     0.13200
C4176       C  0.91600248  0.00596346  0.83128764    -0.23000
C4177       C  0.88572670  0.95843170  0.86228027    -0.06000
H4178       H  0.86966232  0.96009939  0.81977645     0.14700
C4179       C  0.91093003  0.02438151  0.79422162    -0.16200
H4180       H  0.92868918  0.01905094  0.83506338     0.09000
H4181       H  0.89209273  0.02403310  0.92650337     0.06900
H4182       H  0.91162131  0.04592247  0.91715373     0.08100
H4183       H  0.91950002  0.02883016  0.94128098     0.07100
H4184       H  0.95975375  0.97218701  0.84441884     0.02000
H4185       H  0.94119809  0.95019496  0.85521118     0.02500
H4186       H  0.97038387  0.95452554  0.86718992     0.06000
H4187       H  0.87179089  0.94674501  0.85623540     0.05000
H4188       H  0.87803924  0.96852673  0.87670768    -0.00800
H4189       H  0.90127731  0.94807749  0.86845963     0.00700
H4190       H  0.90662167  0.04080952  0.80282380     0.04300
H4191       H  0.90106530  0.02453733  0.77806865     0.06300
H4192       H  0.93046872  0.02345905  0.79028180     0.07100
C4193       C  0.82042734  0.07013522  0.75315250    -0.22500
C4194       C  0.79681778  0.06663972  0.74608010     0.09500
C4195       C  0.78951417  0.04432209  0.74194051     0.09900
C4196       C  0.80595799  0.02599687  0.74547076    -0.17400
C4197       C  0.82923937  0.02941512  0.75398582    -0.27800
C4198       C  0.83654290  0.05202616  0.75767064     0.18200
C4199       C  0.78015065  0.08686752  0.74462499     0.12200
C4200       C  0.76420081  0.03987570  0.73451509    -0.12200
H4201       H  0.80029581  0.00889565  0.74238209     0.12500
C4202       C  0.86115796  0.05771071  0.76647265    -0.23000
H4203       H  0.82594902  0.08732802  0.75613457     0.08100
C4204       C  0.77159977  0.09806939  0.76453176     0.04500
C4205       C  0.75966841  0.11928869  0.76292712    -0.20200
C4206       C  0.75650712  0.12995105  0.74192682    -0.12500
C4207       C  0.76358737  0.11803966  0.72180826     0.13200
C4208       C  0.77536085  0.09668246  0.72343901    -0.23000
C4209       C  0.77578188  0.08795621  0.78762177    -0.06000
H4210       H  0.75426786  0.12829145  0.77833454     0.14700
C4211       C  0.75914019  0.12738890  0.69839751    -0.16200
H4212       H  0.78169320  0.08805716  0.70812068     0.09000
H4213       H  0.86259014  0.05403922  0.78482105     0.06900
H4214       H  0.86470583  0.07596057  0.76464432     0.08100
H4215       H  0.87542158  0.04821573  0.75700062     0.07100
H4216       H  0.76048774  0.04823534  0.71804804     0.02000
H4217       H  0.75130285  0.04667816  0.74748232     0.02500
H4218       H  0.76123587  0.02150924  0.73233690     0.06000
H4219       H  0.76766107  0.09872021  0.80135664     0.05000
H4220       H  0.79535405  0.08609324  0.79105453    -0.00800
H4221       H  0.76759929  0.07110653  0.78828727     0.00700
H4222       H  0.77659131  0.13000263  0.68978066     0.04300
H4223       H  0.74863516  0.14359862  0.69864820     0.06300
H4224       H  0.74871365  0.11518092  0.68822904     0.07100
C4225       C  0.66995142  0.57270081  0.74722409    -0.22500
C4226       C  0.69477423  0.56809296  0.74577733     0.09500
C4227       C  0.70317954  0.54537676  0.74346650     0.09900
C4228       C  0.68644611  0.52800095  0.74131936    -0.17400
C4229       C  0.66154373  0.53281540  0.74159785    -0.27800
C4230       C  0.65328101  0.55541890  0.74560098     0.18200
C4231       C  0.71107621  0.58770924  0.74581929     0.12200
C4232       C  0.72970213  0.53947492  0.74323995    -0.12200
H4233       H  0.69281292  0.51067862  0.73867858     0.12500
C4234       C  0.62706634  0.56195986  0.74872585    -0.23000
H4235       H  0.66349030  0.59004995  0.74952443     0.08100
C4236       C  0.71799084  0.59781748  0.72530094     0.04500
C4237       C  0.73001764  0.61840437  0.72591619    -0.20200
C4238       C  0.73497990  0.62965092  0.74653862    -0.12500
C4239       C  0.72812637  0.61937880  0.76713639     0.13200
C4240       C  0.71650780  0.59847579  0.76649194    -0.23000
C4241       C  0.71150519  0.58751919  0.70265707    -0.06000
H4242       H  0.73475522  0.62626071  0.71004709     0.14700
C4243       C  0.73138401  0.63106800  0.78973418    -0.16200
H4244       H  0.71056345  0.59099365  0.78217253     0.09000
H4245       H  0.62096426  0.57294303  0.73455463     0.06900
H4246       H  0.62464292  0.57143149  0.76500510     0.08100
H4247       H  0.61539606  0.54719154  0.74957805     0.07100
H4248       H  0.73791147  0.54513990  0.75943187     0.02000
H4249       H  0.73860814  0.54789019  0.72891123     0.02500
H4250       H  0.73317300  0.52096469  0.74137073     0.06000
H4251       H  0.71773474  0.59782647  0.68827101     0.05000
H4252       H  0.69167041  0.58628235  0.70132338    -0.00800
H4253       H  0.71992874  0.57037805  0.70085853     0.00700
H4254       H  0.72384921  0.62124931  0.80390359     0.04300
H4255       H  0.72200519  0.64790511  0.78965225     0.06300
H4256       H  0.75081762  0.63313440  0.79312887     0.07100
C4257       C  0.73770097  0.69071289  0.60811404    -0.22500
C4258       C  0.75186956  0.67203621  0.60069719     0.09500
C4259       C  0.76747684  0.66108911  0.61631813     0.09900
C4260       C  0.76907145  0.66945432  0.63878121    -0.17400
C4261       C  0.75510048  0.68831420  0.64614616    -0.27800
C4262       C  0.73896827  0.69890197  0.63062844     0.18200
C4263       C  0.75080262  0.66470493  0.57633702     0.12200
C4264       C  0.78226331  0.64043746  0.60927615    -0.12200
H4265       H  0.78123038  0.66120416  0.65068525     0.12500
C4266       C  0.72322450  0.71919651  0.63702370    -0.23000
H4267       H  0.72572638  0.69913615  0.59615754     0.08100
C4268       C  0.73200310  0.65158409  0.56775717     0.04500
C4269       C  0.73233666  0.64459593  0.54476985    -0.20200
C4270       C  0.75108111  0.65033668  0.53000889    -0.12500
C4271       C  0.76986639  0.66369711  0.53872528     0.13200
C4272       C  0.76936340  0.67068880  0.56167601    -0.23000
C4273       C  0.71194189  0.64447396  0.58304397    -0.06000
H4274       H  0.71792568  0.63440399  0.53833354     0.14700
C4275       C  0.79121903  0.66985747  0.52451482    -0.16200
H4276       H  0.78376576  0.68073030  0.56838790     0.09000
H4277       H  0.70403819  0.71513658  0.63448142     0.06900
H4278       H  0.72762053  0.73359754  0.62599603     0.08100
H4279       H  0.72546131  0.72476079  0.65490863     0.07100
H4280       H  0.79482651  0.64472468  0.59542470     0.02000
H4281       H  0.77019974  0.62705457  0.60316335     0.02500
H4282       H  0.79305594  0.63355304  0.62362475     0.06000
H4283       H  0.69883828  0.63397474  0.57380715     0.05000
H4284       H  0.70212254  0.65963182  0.58999361    -0.00800
H4285       H  0.71949418  0.63440480  0.59730784     0.00700
H4286       H  0.78578753  0.68254538  0.51168216     0.04300
H4287       H  0.79927188  0.65455562  0.51610942     0.06300
H4288       H  0.80547849  0.67754383  0.53499883     0.07100
C4289       C  0.62877771  0.76521776  0.67733049    -0.22500
C4290       C  0.62023934  0.74527771  0.66763947     0.09500
C4291       C  0.63536705  0.72583050  0.66661515     0.09900
C4292       C  0.65856930  0.72656566  0.67579639    -0.17400
C4293       C  0.66720380  0.74624862  0.68638387    -0.27800
C4294       C  0.65195544  0.76600721  0.68689346     0.18200
C4295       C  0.59549924  0.74525611  0.65826288     0.12200
C4296       C  0.62684099  0.70412900  0.65620347    -0.12200
H4297       H  0.66987939  0.71134881  0.67496459     0.12500
C4298       C  0.65932423  0.78778770  0.69800033    -0.23000
H4299       H  0.61700062  0.78015737  0.67773062     0.08100
C4300       C  0.57506622  0.74348654  0.67233876     0.04500
C4301       C  0.55194115  0.74516195  0.66264844    -0.20200
C4302       C  0.54900408  0.74851444  0.63923633    -0.12500
C4303       C  0.56960723  0.74896325  0.62506271     0.13200
C4304       C  0.59254048  0.74741067  0.63479812    -0.23000
C4305       C  0.57777401  0.74011817  0.69753714    -0.06000
H4306       H  0.53616483  0.74494034  0.67347348     0.14700
C4307       C  0.56818973  0.75153560  0.59962887    -0.16200
H4308       H  0.60830078  0.74835502  0.62401995     0.09000
H4309       H  0.64492962  0.80116725  0.69691958     0.06900
H4310       H  0.67548475  0.79420170  0.68940613     0.08100
H4311       H  0.66311891  0.78497396  0.71627869     0.07100
H4312       H  0.62252455  0.70670595  0.63799383     0.02000
H4313       H  0.61049259  0.69869429  0.66522945     0.02500
H4314       H  0.64072448  0.69029247  0.65730514     0.06000
H4315       H  0.56005187  0.73887625  0.70607472     0.05000
H4316       H  0.58722711  0.75455850  0.70524546    -0.00800
H4317       H  0.58837777  0.72426547  0.70070282     0.00700
H4318       H  0.57698437  0.76731153  0.59462684     0.04300
H4319       H  0.54955107  0.75221524  0.59307446     0.06300
H4320       H  0.57770540  0.73692812  0.59124333     0.07100
C4321       C  0.78677273  0.87442080  0.72708807    -0.22500
C4322       C  0.80012297  0.88233047  0.74559607     0.09500
C4323       C  0.80425676  0.86788049  0.76420335     0.09900
C4324       C  0.79570796  0.84573677  0.76354485    -0.17400
C4325       C  0.78250218  0.83741495  0.74492608    -0.27800
C4326       C  0.77775149  0.85233422  0.72651523     0.18200
C4327       C  0.81003769  0.90559236  0.74518138     0.12200
C4328       C  0.81793955  0.87574274  0.78477886    -0.12200
H4329       H  0.79937792  0.83485697  0.77788938     0.12500
C4330       C  0.76369859  0.84521001  0.70591202    -0.23000
H4331       H  0.78347602  0.88563928  0.71292685     0.08100
C4332       C  0.83107808  0.91037674  0.73278333     0.04500
C4333       C  0.84142339  0.93176026  0.73508647    -0.20200
C4334       C  0.83145627  0.94837157  0.74979652    -0.12500
C4335       C  0.80984762  0.94392709  0.76140189     0.13200
C4336       C  0.79926354  0.92273510  0.75876303    -0.23000
C4337       C  0.84333575  0.89250762  0.71808168    -0.06000
H4338       H  0.85823162  0.93500463  0.72654367     0.14700
C4339       C  0.79834774  0.96135897  0.77714785    -0.16200
H4340       H  0.78305442  0.91915131  0.76812916     0.09000
H4341       H  0.76242572  0.85879174  0.69305863     0.06900
H4342       H  0.74506409  0.84123903  0.71092764     0.08100
H4343       H  0.77265206  0.83020145  0.69772613     0.07100
H4344       H  0.80806460  0.89019830  0.79304437     0.02000
H4345       H  0.83609464  0.88110298  0.77963871     0.02500
H4346       H  0.82020075  0.86217703  0.79755425     0.06000
H4347       H  0.85979287  0.89883318  0.70989777     0.05000
H4348       H  0.83091695  0.88707195  0.70446514    -0.00800
H4349       H  0.84862519  0.87770043  0.72857440     0.00700
H4350       H  0.79413922  0.97705582  0.76763974     0.04300
H4351       H  0.81072909  0.96525397  0.79133999     0.06300
H4352       H  0.78134718  0.95538192  0.78458007     0.07100
C4353       C  0.75379473  0.77568538  0.88442973    -0.22500
C4354       C  0.75973818  0.79832958  0.88702955     0.09500
C4355       C  0.76832052  0.81034371  0.86827486     0.09900
C4356       C  0.76930610  0.79977669  0.84683479    -0.17400
C4357       C  0.76181221  0.77752909  0.84383602    -0.27800
C4358       C  0.75482396  0.76502005  0.86306395     0.18200
C4359       C  0.75566200  0.80947955  0.90931153     0.12200
C4360       C  0.77612742  0.83436969  0.87088807    -0.12200
H4361       H  0.77511933  0.80918704  0.83222899     0.12500
C4362       C  0.74885442  0.74036896  0.86138302    -0.23000
H4363       H  0.74772910  0.76652910  0.89911320     0.08100
C4364       C  0.73411776  0.82166306  0.91403484     0.04500
C4365       C  0.73162654  0.83341618  0.93474503    -0.20200
C4366       C  0.75016536  0.83320173  0.95118052    -0.12500
C4367       C  0.77041060  0.81817346  0.94727271     0.13200
C4368       C  0.77319160  0.80724980  0.92612438    -0.23000
C4369       C  0.71367707  0.82211605  0.89719607    -0.06000
H4370       H  0.71480995  0.84240529  0.93776181     0.14700
C4371       C  0.78963551  0.81290130  0.96464364    -0.16200
H4372       H  0.78916204  0.79676021  0.92274481     0.09000
H4373       H  0.73202615  0.73831148  0.85161853     0.06900
H4374       H  0.74600051  0.73296401  0.87839859     0.08100
H4375       H  0.76387578  0.73066536  0.85301558     0.07100
H4376       H  0.79105560  0.83510424  0.88336370     0.02000
H4377       H  0.76085102  0.84531573  0.87699598     0.02500
H4378       H  0.78254685  0.84122240  0.85454886     0.06000
H4379       H  0.69791569  0.83228534  0.90357217     0.05000
H4380       H  0.70778859  0.80462672  0.89389683    -0.00800
H4381       H  0.71958603  0.82954883  0.88097461     0.00700
H4382       H  0.79113089  0.79433153  0.96705127     0.04300
H4383       H  0.78588740  0.82039128  0.98149035     0.06300
H4384       H  0.80721411  0.81889987  0.95856821     0.07100
C4385       C  0.88466500  0.70811236  0.83190585    -0.22500
C4386       C  0.89928843  0.72675021  0.82818027     0.09500
C4387       C  0.89183197  0.74291897  0.81202470     0.09900
C4388       C  0.87013259  0.74024793  0.80024684    -0.17400
C4389       C  0.85488661  0.72205904  0.80426032    -0.27800
C4390       C  0.86249638  0.70565454  0.82034989     0.18200
C4391       C  0.92122706  0.73034261  0.84249308     0.12200
C4392       C  0.90624760  0.76364507  0.80777833    -0.12200
H4393       H  0.86486275  0.75290451  0.78792894     0.12500
C4394       C  0.84696786  0.68618294  0.82624269    -0.23000
H4395       H  0.89031665  0.69576572  0.84442267     0.08100
C4396       C  0.91918866  0.73751460  0.86540257     0.04500
C4397       C  0.93993880  0.74304005  0.87767554    -0.20200
C4398       C  0.96284595  0.74280017  0.86747685    -0.12500
C4399       C  0.96488710  0.73598281  0.84430972     0.13200
C4400       C  0.94417466  0.72929635  0.83238927    -0.23000
C4401       C  0.89493296  0.74061661  0.87661472    -0.06000
H4402       H  0.93812241  0.74830553  0.89530558     0.14700
C4403       C  0.98817518  0.73745007  0.83133961    -0.16200
H4404       H  0.94568266  0.72422849  0.81468006     0.09000
H4405       H  0.85530991  0.67545374  0.83963969     0.06900
H4406       H  0.84430637  0.67535367  0.81100016     0.08100
H4407       H  0.82925546  0.69268626  0.83264561     0.07100
H4408       H  0.92418550  0.75866961  0.80077659     0.02000
H4409       H  0.90852871  0.77323253  0.82392002     0.02500
H4410       H  0.89726058  0.77512837  0.79540213     0.06000
H4411       H  0.89646275  0.74709865  0.89432032     0.05000
H4412       H  0.88579109  0.72424533  0.87716083    -0.00800
H4413       H  0.88369949  0.75297178  0.86690711     0.00700
H4414       H  0.00176117  0.72501491  0.83760288     0.04300
H4415       H  0.99505469  0.75476675  0.83289783     0.06300
H4416       H  0.98570495  0.73375815  0.81296029     0.07100
loop_ 
_geom_bond_atom_site_label_1 
_geom_bond_atom_site_label_2 
_geom_bond_distance 
_geom_bond_site_symmetry_2 
_ccdc_geom_bond_type 
Zr1           O2   2.442       .  S
Zr1           O3   2.445       .  S
Zr1           O4   2.447       .  S
Zr1           O7   2.409       .  S
Zr1           O9   2.375       .  S
Zr1          O10   2.385       .  S
Zr1          O11   2.408       .  S
Zr1          O12   2.410       .  S
O2           H58   0.991       .  S
O2           H66   0.990       .  S
O3           C23   1.286       .  A
O4           C25   1.286       .  A
O5          Zr15   2.496       .  S
O5           C24   1.296       .  A
O6          Zr14   2.460       .  S
O6           C25   1.288       .  A
O7           C24   1.282       .  A
O8          Zr16   2.404       .  S
O8           C23   1.278       .  A
O9          Zr14   2.399       .  S
O9          Zr16   2.386       .  S
O10         Zr15   2.392       .  S
O10         Zr16   2.377       .  S
O10          H45   0.964       .  S
O11         Zr14   2.400       .  S
O11         Zr31   2.410       .  S
O11          H48   0.970       .  S
O12         Zr15   2.401       .  S
O12         Zr31   2.400       .  S
Zr13         O38   2.448       .  S
Zr13         O32   2.438       .  S
Zr13         O40   2.423       .  S
Zr13         O28   2.423       .  S
Zr13         O19   2.402       .  S
Zr13         O20   2.402       .  S
Zr13         O21   2.378       .  S
Zr13         O22   2.386       .  S
Zr14         O33   2.435       .  S
Zr14         O26   2.434       .  S
Zr14         O27   2.454       .  S
Zr14         O20   2.401       .  S
Zr14         O21   2.396       .  S
Zr15         O17   2.434       .  S
Zr15         O39   2.439       .  S
Zr15         O41   2.482       .  S
Zr15         O19   2.399       .  S
Zr15         O22   2.406       .  S
Zr16         O42   2.436       .  S
Zr16         O43   2.436       .  S
Zr16         O18   2.437       .  S
Zr16         O19   2.389       .  S
Zr16         O20   2.381       .  S
O17          H54   0.991       .  S
O18          H49   0.990       .  S
O18          H63   0.990       .  S
O20          H46   0.966       .  S
O21         Zr31   2.375       .  S
O22         Zr31   2.375       .  S
O22          H47   0.966       .  S
C23        C4357   1.477       .  S
C24        C4389   1.510       .  S
C25        C4325   1.512       .  S
O26          H62   0.990       .  S
O27          C29   1.288       .  A
O28          C29   1.284       .  A
C29        C4293   1.499       .  S
O30         Zr31   2.438       .  S
O30          H59   0.990       .  S
Zr31         O34   2.436       .  S
Zr31         O35   2.438       .  S
Zr31         O36   2.450       .  S
O32          C37   1.285       .  A
O33          H50   0.990       .  S
O33          H65   0.990       .  S
O34          H51   0.990       .  S
O35          H55   0.990       .  S
O35          H64   0.990       .  S
O36          C37   1.287       .  A
C37        C4261   1.487       .  S
O38          H57   0.990       .  S
O38          H61   0.990       .  S
O39          H53   0.990       .  S
O39          H60   0.990       .  S
O40          C44   1.284       .  A
O41          C44   1.294       .  A
O42          H52   0.990       .  S
O43          H56   0.990       .  S
C44        C4238   1.501       .  S
C67          C68   1.541       .  S
C67          C73   1.533   1_565  S
C67          C71   1.547       .  S
C67        C4174   1.553       .  S
C68          H75   1.082       .  S
C68          C69   1.363       .  D
C69          C70   1.550       .  S
C69        C4334   1.492       .  S
C70          C74   1.553   1_565  S
C70          C72   1.551       .  S
C70          H76   1.108       .  S
C71          H77   1.086       .  S
C71          C72   1.373       .  D
C72        C4133   1.506       .  S
C73          H78   1.084       .  S
C73          C74   1.365       .  D
C74        C4197   1.503       .  S
Zr79         O80   2.441       .  S
Zr79         O81   2.415       .  S
Zr79         O82   2.428       .  S
Zr79         O85   2.421       .  S
Zr79         O87   2.379       .  S
Zr79         O88   2.384       .  S
Zr79         O89   2.402       .  S
Zr79         O90   2.391       .  S
O80         H136   0.991       .  S
O80         H144   0.990       .  S
O81         C101   1.279       .  A
O82         C103   1.283       .  A
O83         Zr93   2.444       .  S
O83         C102   1.287       .  A
O84         Zr92   2.459       .  S
O84         C103   1.289       .  A
O85         C102   1.284       .  A
O86         Zr94   2.420       .  S
O86         C101   1.281       .  A
O87         Zr92   2.391       .  S
O87         Zr94   2.374       .  S
O88         Zr93   2.389       .  S
O88         Zr94   2.380       .  S
O88         H123   0.966       .  S
O89         Zr92   2.403       .  S
O89        Zr109   2.397       .  S
O89         H126   0.966       .  S
O90         Zr93   2.390       .  S
O90        Zr109   2.381       .  S
Zr91        O116   2.442       .  S
Zr91        O110   2.442       .  S
Zr91        O118   2.443       .  S
Zr91        O106   2.423       .  S
Zr91         O97   2.404       .  S
Zr91         O98   2.407       .  S
Zr91         O99   2.384       .  S
Zr91        O100   2.380       .  S
Zr92        O111   2.436       .  S
Zr92        O104   2.435       .  S
Zr92        O105   2.451       .  S
Zr92         O98   2.399       .  S
Zr92         O99   2.399       .  S
Zr93         O95   2.435       .  S
Zr93        O117   2.435       .  S
Zr93        O119   2.443       .  S
Zr93         O97   2.398       .  S
Zr93        O100   2.393       .  S
Zr94        O120   2.436       .  S
Zr94        O121   2.435       .  S
Zr94         O96   2.436       .  S
Zr94         O97   2.399       .  S
Zr94         O98   2.392       .  S
O95         H132   0.990       .  S
O96         H127   0.990       .  S
O96         H141   0.990       .  S
O98         H124   0.966       .  S
O99        Zr109   2.379       .  S
O100       Zr109   2.385       .  S
O100        H125   0.965       .  S
C101       C4101   1.461       .  S
C102       C4078   1.496       .  S
C103       C4206   1.488       .  S
O104        H140   0.990       .  S
O105        C107   1.288       .  A
O106        C107   1.283       .  A
C107       C4046   1.482       .  S
O108       Zr109   2.440       .  S
O108        H137   0.990       .  S
Zr109       O112   2.437       .  S
Zr109       O113   2.441       .  S
Zr109       O114   2.404       .  S
O110        C115   1.284       .  A
O111        H128   0.990       .  S
O111        H143   0.990       .  S
O112        H129   0.990       .  S
O113        H133   0.990       .  S
O113        H142   0.990       .  S
O114        C115   1.279       .  A
C115       C4005   1.468       .  S
O116        H135   0.991       .  S
O116        H139   0.990       .  S
O117        H131   0.990       .  S
O117        H138   0.990       .  S
O118        C122   1.285       .  A
O119        C122   1.286       .  A
O120        H130   0.989       .  S
O121        H134   0.990       .  S
C122       C3982   1.489       .  S
C145        C146   1.541       .  S
C145        C151   1.536       .  S
C145        C149   1.545       .  S
C145       C3950   1.550       .  S
C146        H153   1.084       .  S
C146        C147   1.362       .  D
C147        C148   1.547       .  S
C147       C3973   1.493       .  S
C148        C152   1.543       .  S
C148        C150   1.544       .  S
C148        H154   1.111       .  S
C149        H155   1.085       .  S
C149        C150   1.372       .  D
C150       C3909   1.493       .  S
C151        H156   1.086       .  S
C151        C152   1.367       .  D
C152       C4229   1.494       .  S
C157        C158   1.538       .  S
C157        C163   1.531       .  S
C157        C161   1.543       .  S
C157       C3877   1.547       .  S
C158        H165   1.082       .  S
C158        C159   1.359       .  D
C159        C160   1.541       .  S
C159       C3822   1.487       .  S
C160        C164   1.547       .  S
C160        C162   1.550       .  S
C160        H166   1.106       .  S
C161        H167   1.082       .  S
C161        C162   1.373       .  D
C162       C4270   1.503       .  S
C163        H168   1.087       .  S
C163        C164   1.368       .  D
C164       C3845   1.498       .  S
Zr169       O170   2.443       .  S
Zr169       O171   2.448       .  S
Zr169       O172   2.432       .  S
Zr169       O175   2.419       .  S
Zr169       O177   2.379       .  S
Zr169       O178   2.383       .  S
Zr169       O179   2.412       .  S
Zr169       O180   2.405       .  S
O170        H226   0.991       .  S
O170        H234   0.990       .  S
O171        C191   1.285       .  A
O172        C193   1.282       .  A
O173       Zr183   2.449       .  S
O173        C192   1.287       .  A
O174       Zr182   2.450       .  S
O174        C193   1.287       .  A
O175        C192   1.282       .  A
O176       Zr184   2.413       .  S
O176        C191   1.280       .  A
O177       Zr182   2.403       .  S
O177       Zr184   2.381       .  S
O178       Zr183   2.396       .  S
O178       Zr184   2.381       .  S
O178        H213   0.966       .  S
O179       Zr182   2.406       .  S
O179       Zr199   2.398       .  S
O179        H216   0.969       .  S
O180       Zr183   2.394       .  S
O180       Zr199   2.397       .  S
Zr181       O206   2.444       .  S
Zr181       O200   2.432       .  S
Zr181       O208   2.432       .  S
Zr181       O196   2.426       .  S
Zr181       O187   2.400       .  S
Zr181       O188   2.401       .  S
Zr181       O189   2.378       .  S
Zr181       O190   2.381       .  S
Zr182       O201   2.436       .  S
Zr182       O194   2.435       .  S
Zr182       O195   2.457       .  S
Zr182       O188   2.399       .  S
Zr182       O189   2.391       .  S
Zr183       O185   2.435       .  S
Zr183       O207   2.434       .  S
Zr183       O209   2.459       .  S
Zr183       O187   2.392       .  S
Zr183       O190   2.392       .  S
Zr184       O210   2.435       .  S
Zr184       O211   2.434       .  S
Zr184       O186   2.437       .  S
Zr184       O187   2.399       .  S
Zr184       O188   2.383       .  S
O185        H222   0.990       .  S
O186        H217   0.990       .  S
O186        H231   0.990       .  S
O188        H214   0.965       .  S
O189       Zr199   2.372       .  S
O190       Zr199   2.374       .  S
O190        H215   0.970       .  S
C191       C3653   1.476       .  S
C192       C3790   1.483       .  S
C193       C3685   1.476       .  S
O194        H230   0.990       .  S
O195        C197   1.290       .  A
O196        C197   1.284       .  A
C197       C3717   1.481       .  S
O198       Zr199   2.439       .  S
O198        H227   0.990       .  S
Zr199       O202   2.439       .  S
Zr199       O203   2.440       .  S
Zr199       O204   2.435       .  S
O200        C205   1.284       .  A
O201        H218   0.990       .  S
O201        H233   0.990       .  S
O202        H219   0.990       .  S
O203        H223   0.990       .  S
O203        H232   0.990       .  S
O204        C205   1.285       .  A
C205       C3886   1.490       .  S
O206        H225   0.990       .  S
O206        H229   0.990       .  S
O207        H221   0.990       .  S
O207        H228   0.990       .  S
O208        C212   1.286       .  A
O209        C212   1.289       .  A
O210        H220   0.989       .  S
O211        H224   0.990       .  S
C212       C3749   1.502       .  S
C235        C236   1.536       .  S
C235        C241   1.546       .  S
C235        C239   1.543       .  S
C235       C4366   1.542       .  S
C236        H243   1.086       .  S
C236        C237   1.361       .  D
C237        C238   1.532   1_556  S
C237       C3630   1.479       .  S
C238        C242   1.533   1_554  S
C238        C240   1.542       .  S
C238        H244   1.110       .  S
C239        H245   1.081       .  S
C239        C240   1.373   1_556  D
C240       C3662   1.499       .  S
C241        H246   1.081       .  S
C241        C242   1.361       .  D
C242       C3598   1.470       .  S
C247        C248   1.537       .  S
C247        C253   1.549       .  S
C247        C251   1.535       .  S
C247       C3525   1.541       .  S
C248        H255   1.086       .  S
C248        C249   1.365       .  D
C249        C250   1.539       .  S
C249       C3502   1.484       .  S
C250        C254   1.544       .  S
C250        C252   1.544       .  S
C250        H256   1.111       .  S
C251        H257   1.086       .  S
C251        C252   1.360       .  D
C252       C3557   1.487       .  S
C253        H258   1.082       .  S
C253        C254   1.367       .  D
C254       C3781   1.492       .  S
C259        C260   1.535       .  S
C259        C265   1.545       .  S
C259        C263   1.534       .  S
C259       C3365   1.546       .  S
C260        H267   1.087       .  S
C260        C261   1.366       .  D
C261        C262   1.550   1_565  S
C261       C3429   1.501       .  S
C262        C266   1.555   1_545  S
C262        C264   1.547       .  S
C262        H268   1.110       .  S
C263        H269   1.083       .  S
C263        C264   1.364   1_565  D
C264       C3406   1.496       .  S
C265        H270   1.082       .  S
C265        C266   1.368       .  D
C266       C3461   1.496       .  S
C271        C272   1.537       .  S
C271        C277   1.535       .  S
C271        C275   1.549   1_554  S
C271       C3269   1.533       .  S
C272        H279   1.086       .  S
C272        C273   1.361       .  D
C273        C274   1.532   1_554  S
C273       C3333   1.474   1_554  S
C274        C278   1.530   1_556  S
C274        C276   1.536       .  S
C274        H280   1.111       .  S
C275        H281   1.081       .  S
C275        C276   1.370       .  D
C276       C4014   1.481       .  S
C277        H282   1.087       .  S
C277        C278   1.359       .  D
C278       C3301   1.472   1_554  S
C283        C284   1.531       .  S
C283        C289   1.542       .  S
C283        C287   1.554   1_554  S
C283       C3246   1.541       .  S
C284        H291   1.087       .  S
C284        C285   1.357   1_554  D
C285        C286   1.528       .  S
C285       C3205   1.467       .  S
C286        C290   1.527       .  S
C286        C288   1.532       .  S
C286        H292   1.111       .  S
C287        H293   1.080       .  S
C287        C288   1.371       .  D
C288       C3141   1.481       .  S
C289        H294   1.086       .  S
C289        C290   1.365   1_554  D
C290       C3182   1.474       .  S
C295        C296   1.536       .  S
C295        C301   1.531       .  S
C295        C299   1.552       .  S
C295       C3013   1.552       .  S
C296        H303   1.087       .  S
C296        C297   1.370       .  D
C297        C298   1.556       .  S
C297       C3118   1.507       .  S
C298        C302   1.550       .  S
C298        C300   1.545       .  S
C298        H304   1.110       .  S
C299        H305   1.079       .  S
C299        C300   1.368       .  D
C300       C3045   1.496       .  S
C301        H306   1.087       .  S
C301        C302   1.363       .  D
C302       C3077   1.493       .  S
C307        C308   1.540       .  S
C307        C313   1.550       .  S
C307        C311   1.545       .  S
C307       C2917   1.552       .  S
C308        H315   1.086       .  S
C308        C309   1.370       .  D
C309        C310   1.539       .  S
C309       C2981   1.494       .  S
C310        C314   1.537       .  S
C310        C312   1.532       .  S
C310        H316   1.111       .  S
C311        H317   1.085       .  S
C311        C312   1.368       .  D
C312       C4110   1.480       .  S
C313        H318   1.083       .  S
C313        C314   1.365       .  D
C314       C2949   1.487       .  S
C319        C320   1.528       .  S
C319        C325   1.549   1_455  S
C319        C323   1.543       .  S
C319       C2853   1.547       .  S
C320        H327   1.087       .  S
C320        C321   1.359       .  D
C321        C322   1.547       .  S
C321       C2821   1.492       .  S
C322        C326   1.547   1_455  S
C322        C324   1.545       .  S
C322        H328   1.106       .  S
C323        H329   1.084       .  S
C323        C324   1.371       .  D
C324       C2894   1.499       .  S
C325        H330   1.081       .  S
C325        C326   1.367       .  D
C326       C3726   1.498       .  S
Zr331       O332   2.442       .  S
Zr331       O333   2.440       .  S
Zr331       O334   2.446       .  S
Zr331       O337   2.413       .  S
Zr331       O339   2.376       .  S
Zr331       O340   2.387       .  S
Zr331       O341   2.402       .  S
Zr331       O342   2.409       .  S
O332        H388   0.991       .  S
O332        H396   0.990       .  S
O333        C353   1.284       .  A
O334        C355   1.286       .  A
O335       Zr345   2.471       .  S
O335        C354   1.291       .  A
O336       Zr344   2.468       .  S
O336        C355   1.290       .  A
O337        C354   1.282       .  A
O338       Zr346   2.398       .  S
O338        C353   1.278       .  A
O339       Zr344   2.397       .  S
O339       Zr346   2.381       .  S
O340       Zr345   2.400       .  S
O340       Zr346   2.380       .  S
O340        H375   0.967       .  S
O341       Zr344   2.400       .  S
O341       Zr361   2.398       .  S
O341        H378   0.958       .  S
O342       Zr345   2.401       .  S
O342       Zr361   2.392       .  S
Zr343       O368   2.443       .  S
Zr343       O362   2.418       .  S
Zr343       O370   2.424       .  S
Zr343       O358   2.431       .  S
Zr343       O349   2.398       .  S
Zr343       O350   2.399       .  S
Zr343       O351   2.378       .  S
Zr343       O352   2.386       .  S
Zr344       O363   2.435       .  S
Zr344       O356   2.435       .  S
Zr344       O357   2.455       .  S
Zr344       O350   2.407       .  S
Zr344       O351   2.387       .  S
Zr345       O347   2.435       .  S
Zr345       O369   2.436       .  S
Zr345       O371   2.483       .  S
Zr345       O349   2.398       .  S
Zr345       O352   2.397       .  S
Zr346       O372   2.435       .  S
Zr346       O373   2.435       .  S
Zr346       O348   2.436       .  S
Zr346       O349   2.394       .  S
Zr346       O350   2.385       .  S
O347        H384   0.990       .  S
O348        H379   0.990       .  S
O348        H393   0.990       .  S
O350        H376   0.965       .  S
O351       Zr361   2.368       .  S
O352       Zr361   2.376       .  S
O352        H377   0.969       .  S
C353       C3237   1.485       .  S
C354       C3493   1.503       .  S
C355       C2766   1.520       .  S
O356        H392   0.990       .  S
O357        C359   1.291       .  A
O358        C359   1.284       .  A
C359       C2830   1.496       .  S
O360       Zr361   2.438       .  S
O360        H389   0.990       .  S
Zr361       O364   2.437       .  S
Zr361       O365   2.439       .  S
Zr361       O366   2.425       .  S
O362        C367   1.281       .  A
O363        H380   0.990       .  S
O363        H395   0.990       .  S
O364        H381   0.990       .  S
O365        H385   0.990       .  S
O365        H394   0.990       .  S
O366        C367   1.282       .  A
C367       C2725   1.466       .  S
O368        H387   0.990       .  S
O368        H391   0.990       .  S
O369        H383   0.990       .  S
O369        H390   0.990       .  S
O370        C374   1.285       .  A
O371        C374   1.294       .  A
O372        H382   0.989       .  S
O373        H386   0.990       .  S
C374       C2798   1.505       .  S
C397        C398   1.532       .  S
C397        C403   1.546       .  S
C397        C401   1.539       .  S
C397       C2734   1.545       .  S
C398        H405   1.087       .  S
C398        C399   1.360       .  D
C399        C400   1.547       .  S
C399       C2702   1.493       .  S
C400        C404   1.548       .  S
C400        C402   1.545       .  S
C400        H406   1.110       .  S
C401        H407   1.085       .  S
C401        C402   1.367       .  D
C402       C2629   1.491       .  S
C403        H408   1.081       .  S
C403        C404   1.370       .  D
C404       C2670   1.499       .  S
C409        C410   1.545       .  S
C409        C415   1.540       .  S
C409        C413   1.548       .  S
C409       C2533   1.561       .  S
C410        H417   1.081       .  S
C410        C411   1.358       .  D
C411        C412   1.544       .  S
C411       C2597   1.491       .  S
C412        C416   1.546       .  S
C412        C414   1.546       .  S
C412        H418   1.110       .  S
C413        H419   1.086       .  S
C413        C414   1.379       .  D
C414       C2565   1.508       .  S
C415        H420   1.086       .  S
C415        C416   1.367       .  D
C416       C3758   1.490       .  S
Zr421       O422   2.433       .  S
Zr421       O423   2.418       .  S
Zr421       O424   2.447       .  S
Zr421       O427   2.422       .  S
Zr421       O429   2.383       .  S
Zr421       O430   2.382       .  S
Zr421       O431   2.398       .  S
Zr421       O432   2.396       .  S
O422        H478   0.990       .  S
O422        H486   0.989       .  S
O423        C443   1.280       .  A
O424        C445   1.287       .  A
O425       Zr435   2.411       .  S
O425        C444   1.280       .  A
O426       Zr434   2.480       .  S
O426        C445   1.294       .  A
O427        C444   1.283       .  A
O428       Zr436   2.429       .  S
O428        C443   1.284       .  A
O429       Zr434   2.399       .  S
O429       Zr436   2.377       .  S
O430       Zr435   2.394       .  S
O430       Zr436   2.371       .  S
O430        H465   0.965       .  S
O431       Zr434   2.404       .  S
O431       Zr451   2.388       .  S
O431        H468   0.966       .  S
O432       Zr435   2.397       .  S
O432       Zr451   2.385       .  S
Zr433       O458   2.448       .  S
Zr433       O452   2.448       .  S
Zr433       O460   2.443       .  S
Zr433       O448   2.393       .  S
Zr433       O439   2.396       .  S
Zr433       O440   2.413       .  S
Zr433       O441   2.380       .  S
Zr433       O442   2.370       .  S
Zr434       O453   2.435       .  S
Zr434       O446   2.435       .  S
Zr434       O447   2.480       .  S
Zr434       O440   2.402       .  S
Zr434       O441   2.393       .  S
Zr435       O437   2.435       .  S
Zr435       O459   2.438       .  S
Zr435       O461   2.435       .  S
Zr435       O439   2.387       .  S
Zr435       O442   2.387       .  S
Zr436       O462   2.437       .  S
Zr436       O463   2.435       .  S
Zr436       O438   2.437       .  S
Zr436       O439   2.405       .  S
Zr436       O440   2.392       .  S
O437        H474   0.990       .  S
O438        H469   0.991       .  S
O438        H483   0.990       .  S
O440        H466   0.963       .  S
O441       Zr451   2.372       .  S
O442       Zr451   2.386       .  S
O442        H467   0.964       .  S
C443       C2501   1.483       .  S
C444       C3278   1.464       .  S
C445       C2606   1.507       .  S
O446        H482   0.990       .  S
O447        C449   1.293       .  A
O448        C449   1.279       .  A
C449       C2926   1.491       .  S
O450       Zr451   2.439       .  S
O450        H479   0.990       .  S
Zr451       O454   2.436       .  S
Zr451       O455   2.439       .  S
Zr451       O456   2.411       .  S
O452        C457   1.287       .  A
O453        H470   0.990       .  S
O453        H485   0.990       .  S
O454        H471   0.990       .  S
O455        H475   0.990       .  S
O455        H484   0.990       .  S
O456        C457   1.280       .  A
C457       C2469   1.477       .  S
O458        H477   0.990       .  S
O458        H481   0.990       .  S
O459        H473   0.990       .  S
O459        H480   0.990       .  S
O460        C464   1.287       .  A
O461        C464   1.284       .  A
O462        H472   0.990       .  S
O463        H476   0.990       .  S
C464       C2446   1.498       .  S
C487        C488   1.550       .  S
C487        C493   1.529   1_545  S
C487        C491   1.548       .  S
C487       C2373   1.555       .  S
C488        H495   1.084       .  S
C488        C489   1.371       .  D
C489        C490   1.543       .  S
C489       C2437   1.499       .  S
C490        C494   1.540   1_545  S
C490        C492   1.540       .  S
C490        H496   1.109       .  S
C491        H497   1.085       .  S
C491        C492   1.373       .  D
C492       C2414   1.494       .  S
C493        H498   1.087       .  S
C493        C494   1.361       .  D
C494       C3694   1.479       .  S
C499        C500   1.538       .  S
C499        C505   1.548       .  S
C499        C503   1.524       .  S
C499       C2309   1.536       .  S
C500        H507   1.087       .  S
C500        C501   1.366       .  D
C501        C502   1.547       .  S
C501       C4037   1.497       .  S
C502        C506   1.543       .  S
C502        C504   1.551       .  S
C502        H508   1.110       .  S
C503        H509   1.087       .  S
C503        C504   1.356       .  D
C504       C2286   1.478       .  S
C505        H510   1.079       .  S
C505        C506   1.370       .  D
C506       C2341   1.495       .  S
Zr511       O512   2.441       .  S
Zr511       O513   2.426       .  S
Zr511       O514   2.429       .  S
Zr511       O517   2.407       .  S
Zr511       O519   2.374       .  S
Zr511       O520   2.386       .  S
Zr511       O521   2.396       .  S
Zr511       O522   2.399       .  S
O512        H568   0.991       .  S
O512        H576   0.990       .  S
O513        C533   1.282       .  A
O514        C535   1.283       .  A
O515       Zr525   2.457       .  S
O515        C534   1.289       .  A
O516       Zr524   2.444       .  S
O516        C535   1.287       .  A
O517        C534   1.281       .  A
O518       Zr526   2.420       .  S
O518        C533   1.281       .  A
O519       Zr524   2.395       .  S
O519       Zr526   2.378       .  S
O520       Zr525   2.398       .  S
O520       Zr526   2.372       .  S
O520        H555   0.966       .  S
O521       Zr524   2.400       .  S
O521       Zr541   2.390       .  S
O521        H558   0.966       .  S
O522       Zr525   2.398       .  S
O522       Zr541   2.386       .  S
Zr523       O548   2.440       .  S
Zr523       O542   2.431       .  S
Zr523       O550   2.403       .  S
Zr523       O538   2.415       .  S
Zr523       O529   2.404       .  S
Zr523       O530   2.396       .  S
Zr523       O531   2.375       .  S
Zr523       O532   2.378       .  S
Zr524       O543   2.435       .  S
Zr524       O536   2.435       .  S
Zr524       O537   2.451       .  S
Zr524       O530   2.395       .  S
Zr524       O531   2.392       .  S
Zr525       O527   2.435       .  S
Zr525       O549   2.436       .  S
Zr525       O551   2.470       .  S
Zr525       O529   2.397       .  S
Zr525       O532   2.389       .  S
Zr526       O552   2.436       .  S
Zr526       O553   2.435       .  S
Zr526       O528   2.436       .  S
Zr526       O529   2.402       .  S
Zr526       O530   2.389       .  S
O527        H564   0.990       .  S
O528        H559   0.990       .  S
O528        H573   0.990       .  S
O530        H556   0.966       .  S
O531       Zr541   2.383       .  S
O532       Zr541   2.369       .  S
O532        H557   0.964       .  S
C533       C2222   1.479       .  S
C534       C2181   1.474       .  S
C535       C3054   1.480       .  S
O536        H572   0.990       .  S
O537        C539   1.287       .  A
O538        C539   1.281       .  A
C539       C2350   1.473       .  S
O540       Zr541   2.439       .  S
O540        H569   0.990       .  S
Zr541       O544   2.435       .  S
Zr541       O545   2.441       .  S
Zr541       O546   2.416       .  S
O542        C547   1.283       .  A
O543        H560   0.990       .  S
O543        H575   0.990       .  S
O544        H561   0.990       .  S
O545        H565   0.990       .  S
O545        H574   0.990       .  S
O546        C547   1.281       .  A
C547       C2245   1.473       .  S
O548        H567   0.990       .  S
O548        H571   0.990       .  S
O549        H563   0.990       .  S
O549        H570   0.990       .  S
O550        C554   1.277       .  A
O551        C554   1.292       .  A
O552        H562   0.990       .  S
O553        H566   0.990       .  S
C554       C3397   1.489       .  S
C577        C578   1.534   1_655  S
C577        C583   1.545       .  S
C577        C581   1.545       .  S
C577       C2126   1.545       .  S
C578        H585   1.086       .  S
C578        C579   1.366       .  D
C579        C580   1.540   1_455  S
C579       C2190   1.489       .  S
C580        C584   1.535       .  S
C580        C582   1.540       .  S
C580        H586   1.111       .  S
C581        H587   1.084       .  S
C581        C582   1.371       .  D
C582       C2149   1.488       .  S
C583        H588   1.083       .  S
C583        C584   1.359       .  D
C584       C4069   1.478       .  S
C589        C590   1.539       .  S
C589        C595   1.541   1_655  S
C589        C593   1.546       .  S
C589       C2094   1.542       .  S
C590        H597   1.086       .  S
C590        C591   1.369       .  D
C591        C592   1.538       .  S
C591       C2510   1.489       .  S
C592        C596   1.534   1_655  S
C592        C594   1.527       .  S
C592        H598   1.111       .  S
C593        H599   1.079       .  S
C593        C594   1.358       .  D
C594       C2021   1.466       .  S
C595        H600   1.086       .  S
C595        C596   1.365       .  D
C596       C2053   1.476       .  S
Zr601       O602   2.441       .  S
Zr601       O603   2.418       .  S
Zr601       O604   2.438       .  S
Zr601       O607   2.433       .  S
Zr601       O609   2.383   1_545  S
Zr601       O610   2.382   1_554  S
Zr601       O611   2.402   1_455  S
Zr601       O612   2.398   1_455  S
O602        H658   0.991       .  S
O602        H666   0.990       .  S
O603        C623   1.281       .  A
O604        C625   1.285   1_545  A
O605       Zr615   2.432       .  S
O605        C624   1.284   1_556  A
O606       Zr614   2.464       .  S
O606        C625   1.291       .  A
O607        C624   1.286   1_455  A
O608       Zr616   2.436   1_545  S
O608        C623   1.284   1_556  A
O609       Zr614   2.407       .  S
O609       Zr616   2.375   1_554  S
O610       Zr615   2.398   1_455  S
O610       Zr616   2.375   1_545  S
O610        H645   0.962       .  S
O611       Zr614   2.407   1_645  S
O611       Zr631   2.388       .  S
O611        H648   0.966       .  S
O612       Zr615   2.402   1_554  S
O612       Zr631   2.389       .  S
Zr613       O638   2.446       .  S
Zr613       O632   2.435       .  S
Zr613       O640   2.411       .  S
Zr613       O628   2.396       .  S
Zr613       O619   2.398   1_655  S
Zr613       O620   2.401   1_655  S
Zr613       O621   2.378   1_556  S
Zr613       O622   2.371   1_565  S
Zr614       O633   2.435   1_455  S
Zr614       O626   2.435       .  S
Zr614       O627   2.484       .  S
Zr614       O620   2.398   1_554  S
Zr614       O621   2.390   1_455  S
Zr615       O617   2.435       .  S
Zr615       O639   2.436   1_655  S
Zr615       O641   2.465       .  S
Zr615       O619   2.389   1_645  S
Zr615       O622   2.379       .  S
Zr616       O642   2.435   1_565  S
Zr616       O643   2.436       .  S
Zr616       O618   2.436       .  S
Zr616       O619   2.408       .  S
Zr616       O620   2.394       .  S
O617        H654   0.990       .  S
O618        H649   0.990       .  S
O618        H663   0.990   1_556  S
O620        H646   0.964       .  S
O621       Zr631   2.379   1_565  S
O622       Zr631   2.379   1_556  S
O622        H647   0.966       .  S
C623       C1966   1.485       .  S
C624       C2085   1.479       .  S
C625       C1989   1.494       .  S
O626        H662   0.990       .  S
O627        C629   1.294   1_455  A
O628        C629   1.279   1_556  A
C629       C1934   1.493   1_554  S
O630       Zr631   2.438       .  S
O630        H659   0.990       .  S
Zr631       O634   2.439   1_545  S
Zr631       O635   2.439       .  S
Zr631       O636   2.413   1_545  S
O632        C637   1.285   1_556  A
O633        H650   0.990   1_655  S
O633        H665   0.990       .  S
O634        H651   0.990       .  S
O635        H655   0.990       .  S
O635        H664   0.990       .  S
O636        C637   1.281       .  A
C637       C3621   1.473       .  S
O638        H657   0.990       .  S
O638        H661   0.990   1_655  S
O639        H653   0.990       .  S
O639        H660   0.990   1_455  S
O640        C644   1.281   1_565  A
O641        C644   1.290       .  A
O642        H652   0.990       .  S
O643        H656   0.990       .  S
C644       C4165   1.484   1_545  S
Zr667       O668   2.443       .  S
Zr667       O669   2.421       .  S
Zr667       O670   2.450       .  S
Zr667       O673   2.407       .  S
Zr667       O675   2.374       .  S
Zr667       O676   2.389       .  S
Zr667       O677   2.397       .  S
Zr667       O678   2.401       .  S
O668        H724   0.990       .  S
O668        H732   0.991       .  S
O669        C689   1.281       .  A
O670        C691   1.285       .  A
O671       Zr681   2.450       .  S
O671        C690   1.287       .  A
O672       Zr680   2.470       .  S
O672        C691   1.290       .  A
O673        C690   1.280       .  A
O674       Zr682   2.417       .  S
O674        C689   1.281       .  A
O675       Zr680   2.395       .  S
O675       Zr682   2.387       .  S
O676       Zr681   2.390       .  S
O676       Zr682   2.381       .  S
O676        H711   0.967       .  S
O677       Zr680   2.402       .  S
O677       Zr697   2.396       .  S
O677        H714   0.967       .  S
O678       Zr681   2.400       .  S
O678       Zr697   2.382       .  S
Zr679       O704   2.441       .  S
Zr679       O698   2.436       .  S
Zr679       O706   2.436       .  S
Zr679       O694   2.398       .  S
Zr679       O685   2.392       .  S
Zr679       O686   2.404       .  S
Zr679       O687   2.377       .  S
Zr679       O688   2.374       .  S
Zr680       O699   2.435       .  S
Zr680       O692   2.435       .  S
Zr680       O693   2.460       .  S
Zr680       O686   2.401       .  S
Zr680       O687   2.398       .  S
Zr681       O683   2.435       .  S
Zr681       O705   2.436       .  S
Zr681       O707   2.467       .  S
Zr681       O685   2.389       .  S
Zr681       O688   2.389       .  S
Zr682       O708   2.436       .  S
Zr682       O709   2.437       .  S
Zr682       O684   2.437       .  S
Zr682       O685   2.399       .  S
Zr682       O686   2.394       .  S
O683        H720   0.990       .  S
O684        H715   0.990       .  S
O684        H729   0.990       .  S
O686        H712   0.965       .  S
O687       Zr697   2.372       .  S
O688       Zr697   2.379       .  S
O688        H713   0.966       .  S
C689       C2062   1.472       .  S
C690       C1902   1.470       .  S
C691       C1870   1.506       .  S
O692        H728   0.990       .  S
O693        C695   1.290       .  A
O694        C695   1.280       .  A
C695       C1797   1.490       .  S
O696       Zr697   2.438       .  S
O696        H725   0.990       .  S
Zr697       O700   2.436       .  S
Zr697       O701   2.440       .  S
Zr697       O702   2.416       .  S
O698        C703   1.285       .  A
O699        H716   0.990       .  S
O699        H731   0.990       .  S
O700        H717   0.990       .  S
O701        H721   0.990       .  S
O701        H730   0.990       .  S
O702        C703   1.280       .  A
C703       C1838   1.469       .  S
O704        H723   0.989       .  S
O704        H727   0.990       .  S
O705        H719   0.990       .  S
O705        H726   0.990       .  S
O706        C710   1.285       .  A
O707        C710   1.292       .  A
O708        H718   0.990       .  S
O709        H722   0.990       .  S
C710       C1765   1.511       .  S
C733        C734   1.547       .  S
C733        C739   1.537   1_545  S
C733        C737   1.550       .  S
C733       C1742   1.559       .  S
C734        H741   1.084       .  S
C734        C735   1.365       .  D
C735        C736   1.553       .  S
C735       C1861   1.508       .  S
C736        C740   1.548   1_545  S
C736        C738   1.546       .  S
C736        H742   1.110       .  S
C737        H743   1.085       .  S
C737        C738   1.376       .  D
C738       C1998   1.502       .  S
C739        H744   1.086       .  S
C739        C740   1.366       .  D
C740       C2789   1.499       .  S
Zr745       O746   2.443       .  S
Zr745       O747   2.445       .  S
Zr745       O748   2.457       .  S
Zr745       O751   2.427       .  S
Zr745       O753   2.380   1_655  S
Zr745       O754   2.391       .  S
Zr745       O755   2.408   1_545  S
Zr745       O756   2.408       .  S
O746        H802   0.991       .  S
O746        H810   0.990       .  S
O747        C767   1.284       .  A
O748        C769   1.287   1_545  A
O749       Zr759   2.455       .  S
O749        C768   1.289       .  A
O750       Zr758   2.460   1_655  S
O750        C769   1.289       .  A
O751        C768   1.284       .  A
O752       Zr760   2.420       .  S
O752        C767   1.280   1_455  A
O753       Zr758   2.404   1_545  S
O753       Zr760   2.384       .  S
O754       Zr759   2.408       .  S
O754       Zr760   2.376   1_655  S
O754        H789   0.966       .  S
O755       Zr758   2.404   1_655  S
O755       Zr775   2.392       .  S
O755        H792   0.964       .  S
O756       Zr759   2.398       .  S
O756       Zr775   2.391   1_545  S
Zr757       O782   2.441       .  S
Zr757       O776   2.442       .  S
Zr757       O784   2.442       .  S
Zr757       O772   2.428       .  S
Zr757       O763   2.406   1_565  S
Zr757       O764   2.407       .  S
Zr757       O765   2.383       .  S
Zr757       O766   2.384   1_455  S
Zr758       O777   2.436       .  S
Zr758       O770   2.434       .  S
Zr758       O771   2.460       .  S
Zr758       O764   2.401       .  S
Zr758       O765   2.401       .  S
Zr759       O761   2.434       .  S
Zr759       O783   2.437       .  S
Zr759       O785   2.466   1_655  S
Zr759       O763   2.397   1_655  S
Zr759       O766   2.394   1_545  S
Zr760       O786   2.435       .  S
Zr760       O787   2.436       .  S
Zr760       O762   2.439       .  S
Zr760       O763   2.401       .  S
Zr760       O764   2.387   1_545  S
O761        H798   0.990       .  S
O762        H793   0.990       .  S
O762        H807   0.990       .  S
O764        H790   0.964       .  S
O765       Zr775   2.382   1_455  S
O766       Zr775   2.380       .  S
O766        H791   0.967       .  S
C767       C2158   1.477       .  S
C768       C2958   1.492       .  S
C769       C4142   1.499       .  S
O770        H806   0.989   1_565  S
O771        C773   1.289       .  A
O772        C773   1.284       .  A
C773       C2661   1.483       .  S
O774       Zr775   2.435       .  S
O774        H803   0.990       .  S
Zr775       O778   2.435       .  S
Zr775       O779   2.437       .  S
Zr775       O780   2.425       .  S
O776        C781   1.285       .  A
O777        H794   0.990       .  S
O777        H809   0.990       .  S
O778        H795   0.990       .  S
O779        H799   0.991       .  S
O779        H808   0.989       .  S
O780        C781   1.282   1_655  A
C781       C2885   1.480       .  S
O782        H801   0.989       .  S
O782        H805   0.990       .  S
O783        H797   0.990       .  S
O783        H804   0.990       .  S
O784        C788   1.285   1_565  A
O785        C788   1.291       .  A
O786        H796   0.990       .  S
O787        H800   0.990       .  S
C788       C1733   1.510       .  S
C811        C812   1.542       .  S
C811        C817   1.550       .  S
C811        C815   1.539       .  S
C811       C1893   1.547       .  S
C812        H819   1.086       .  S
C812        C813   1.366       .  D
C813        C814   1.535   1_554  S
C813       C1701   1.483       .  S
C814        C818   1.534   1_556  S
C814        C816   1.540       .  S
C814        H820   1.111       .  S
C815        H821   1.083       .  S
C815        C816   1.367   1_554  D
C816       C2254   1.486       .  S
C817        H822   1.079       .  S
C817        C818   1.362       .  D
C818       C1957   1.483       .  S
Zr823       O824   2.442       .  S
Zr823       O825   2.440   1_556  S
Zr823       O826   2.449       .  S
Zr823       O829   2.409       .  S
Zr823       O831   2.372   1_556  S
Zr823       O832   2.386   1_556  S
Zr823       O833   2.407       .  S
Zr823       O834   2.403   1_556  S
O824        H880   0.990       .  S
O824        H888   0.990       .  S
O825        C845   1.284       .  A
O826        C847   1.285       .  A
O827       Zr837   2.429       .  S
O827        C846   1.284       .  A
O828       Zr836   2.446       .  S
O828        C847   1.286   1_565  A
O829        C846   1.281   1_556  A
O830       Zr838   2.427       .  S
O830        C845   1.281       .  A
O831       Zr836   2.401   1_544  S
O831       Zr838   2.382       .  S
O832       Zr837   2.402       .  S
O832       Zr838   2.375       .  S
O832        H867   0.967       .  S
O833       Zr836   2.402   1_545  S
O833       Zr853   2.403       .  S
O833        H870   0.966       .  S
O834       Zr837   2.394       .  S
O834       Zr853   2.384   1_554  S
Zr835       O860   2.444       .  S
Zr835       O854   2.432       .  S
Zr835       O862   2.428       .  S
Zr835       O850   2.409       .  S
Zr835       O841   2.396   1_565  S
Zr835       O842   2.405       .  S
Zr835       O843   2.381       .  S
Zr835       O844   2.374   1_565  S
Zr836       O855   2.437       .  S
Zr836       O848   2.435       .  S
Zr836       O849   2.449   1_556  S
Zr836       O842   2.400   1_556  S
Zr836       O843   2.388   1_556  S
Zr837       O839   2.436       .  S
Zr837       O861   2.435       .  S
Zr837       O863   2.452       .  S
Zr837       O841   2.386       .  S
Zr837       O844   2.384       .  S
Zr838       O864   2.436       .  S
Zr838       O865   2.436   1_545  S
Zr838       O840   2.435   1_545  S
Zr838       O841   2.398       .  S
Zr838       O842   2.399   1_545  S
O839        H876   0.990       .  S
O840        H871   0.990       .  S
O840        H885   0.990       .  S
O842        H868   0.968       .  S
O843       Zr853   2.370   1_564  S
O844       Zr853   2.378   1_554  S
O844        H869   0.967       .  S
C845       C1710   1.495       .  S
C846       C2318   1.461       .  S
C847       C3438   1.498   1_545  S
O848        H884   0.990       .  S
O849        C851   1.288       .  A
O850        C851   1.282       .  A
C851       C3566   1.490       .  S
O852       Zr853   2.439       .  S
O852        H881   0.990       .  S
Zr853       O856   2.438   1_545  S
Zr853       O857   2.442       .  S
Zr853       O858   2.423   1_546  S
O854        C859   1.283       .  A
O855        H872   0.990       .  S
O855        H887   0.990       .  S
O856        H873   0.989       .  S
O857        H877   0.990   1_556  S
O857        H886   0.990   1_556  S
O858        C859   1.282       .  A
C859       C3589   1.470       .  S
O860        H879   0.990       .  S
O860        H883   0.990       .  S
O861        H875   0.990       .  S
O861        H882   0.990       .  S
O862        C866   1.283   1_565  A
O863        C866   1.289       .  A
O864        H874   0.990       .  S
O865        H878   0.990       .  S
C866       C2405   1.492       .  S
Zr889       O890   2.441       .  S
Zr889       O891   2.438       .  S
Zr889       O892   2.442       .  S
Zr889       O895   2.421       .  S
Zr889       O897   2.384       .  S
Zr889       O898   2.385       .  S
Zr889       O899   2.403   1_545  S
Zr889       O900   2.405       .  S
O890        H946   0.990       .  S
O890        H954   0.991       .  S
O891        C911   1.285       .  A
O892        C913   1.284       .  A
O893       Zr903   2.463       .  S
O893        C912   1.291       .  A
O894       Zr902   2.482   1_545  S
O894        C913   1.292       .  A
O895        C912   1.283       .  A
O896       Zr904   2.399       .  S
O896        C911   1.277       .  A
O897       Zr902   2.399   1_545  S
O897       Zr904   2.391       .  S
O898       Zr903   2.400       .  S
O898       Zr904   2.379       .  S
O898        H933   0.966       .  S
O899       Zr902   2.400       .  S
O899       Zr919   2.384       .  S
O899        H936   0.965       .  S
O900       Zr903   2.393       .  S
O900       Zr919   2.397   1_545  S
Zr901       O926   2.445       .  S
Zr901       O920   2.416       .  S
Zr901       O928   2.428   1_565  S
Zr901       O916   2.416       .  S
Zr901       O907   2.390   1_565  S
Zr901       O908   2.397   1_565  S
Zr901       O909   2.382       .  S
Zr901       O910   2.379       .  S
Zr902       O921   2.437       .  S
Zr902       O914   2.434   1_565  S
Zr902       O915   2.470       .  S
Zr902       O908   2.405   1_565  S
Zr902       O909   2.397       .  S
Zr903       O905   2.434       .  S
Zr903       O927   2.435       .  S
Zr903       O929   2.476       .  S
Zr903       O907   2.400       .  S
Zr903       O910   2.392   1_545  S
Zr904       O930   2.437       .  S
Zr904       O931   2.437       .  S
Zr904       O906   2.437       .  S
Zr904       O907   2.389       .  S
Zr904       O908   2.383       .  S
O905        H942   0.990       .  S
O906        H937   0.990       .  S
O906        H951   0.989       .  S
O908        H934   0.966       .  S
O909       Zr919   2.371       .  S
O910       Zr919   2.374       .  S
O910        H935   0.966       .  S
C911       C1669   1.470       .  S
C912       C2990   1.485       .  S
C913       C2382   1.493       .  S
O914        H950   0.990       .  S
O915        C917   1.293       .  A
O916        C917   1.281       .  A
C917       C2693   1.497       .  S
O918       Zr919   2.439       .  S
O918        H947   0.990       .  S
Zr919       O922   2.436       .  S
Zr919       O923   2.438       .  S
Zr919       O924   2.430       .  S
O920        C925   1.281       .  A
O921        H938   0.990       .  S
O921        H953   0.990       .  S
O922        H939   0.990       .  S
O923        H943   0.990       .  S
O923        H952   0.990       .  S
O924        C925   1.285       .  A
C925       C1646   1.486       .  S
O926        H945   0.990   1_565  S
O926        H949   0.990   1_565  S
O927        H941   0.990       .  S
O927        H948   0.990       .  S
O928        C932   1.285       .  A
O929        C932   1.292       .  A
O930        H940   0.990       .  S
O931        H944   0.990       .  S
C932       C3470   1.507       .  S
C955        C956   1.542       .  S
C955        C961   1.541       .  S
C955        C959   1.534       .  S
C955       C1678   1.534       .  S
C956        H963   1.084       .  S
C956        C957   1.359       .  D
C957        C958   1.536       .  S
C957       C2478   1.483       .  S
C958        C962   1.540       .  S
C958        C960   1.536       .  S
C958        H964   1.109       .  S
C959        H965   1.086       .  S
C959        C960   1.363       .  D
C960       C1605   1.477       .  S
C961        H966   1.085       .  S
C961        C962   1.370       .  D
C962       C1829   1.484       .  S
Zr967       O968   2.444       .  S
Zr967       O969   2.427       .  S
Zr967       O970   2.428       .  S
Zr967       O973   2.411       .  S
Zr967       O975   2.376       .  S
Zr967       O976   2.388   1_554  S
Zr967       O977   2.408       .  S
Zr967       O978   2.397   1_655  S
O968       H1024   0.990       .  S
O968       H1032   0.991       .  S
O969        C989   1.282   1_554  A
O970        C991   1.281       .  A
O971       Zr981   2.437       .  S
O971        C990   1.285   1_456  A
O972       Zr980   2.474       .  S
O972        C991   1.291       .  A
O973        C990   1.281       .  A
O974       Zr982   2.407       .  S
O974        C989   1.277       .  A
O975       Zr980   2.402       .  S
O975       Zr982   2.385   1_554  S
O976       Zr981   2.404   1_655  S
O976       Zr982   2.384       .  S
O976       H1011   0.964       .  S
O977       Zr980   2.407       .  S
O977       Zr997   2.404   1_655  S
O977       H1014   0.966       .  S
O978       Zr981   2.399   1_554  S
O978       Zr997   2.383       .  S
Zr979      O1004   2.439       .  S
Zr979       O998   2.428       .  S
Zr979      O1006   2.412       .  S
Zr979       O994   2.403       .  S
Zr979       O985   2.389   1_455  S
Zr979       O986   2.401   1_455  S
Zr979       O987   2.379   1_556  S
Zr979       O988   2.374       .  S
Zr980       O999   2.437       .  S
Zr980       O992   2.435       .  S
Zr980       O993   2.465   1_554  S
Zr980       O986   2.410   1_554  S
Zr980       O987   2.395   1_655  S
Zr981       O983   2.436       .  S
Zr981      O1005   2.437   1_455  S
Zr981      O1007   2.466       .  S
Zr981       O985   2.389   1_455  S
Zr981       O988   2.389       .  S
Zr982      O1008   2.437       .  S
Zr982      O1009   2.435       .  S
Zr982       O984   2.436       .  S
Zr982       O985   2.390       .  S
Zr982       O986   2.396       .  S
O983       H1020   0.989       .  S
O984       H1015   0.990       .  S
O984       H1029   0.990       .  S
O986       H1012   0.967       .  S
O987       Zr997   2.370       .  S
O988       Zr997   2.380   1_556  S
O988       H1013   0.965       .  S
C989       C3310   1.480       .  S
C990       C2030   1.471       .  S
C991       C2574   1.499       .  S
O992       H1028   0.990   1_554  S
O993        C995   1.290       .  A
O994        C995   1.281   1_455  A
C995       C1573   1.497       .  S
O996       Zr997   2.438       .  S
O996       H1025   0.990       .  S
Zr997      O1000   2.435       .  S
Zr997      O1001   2.438       .  S
Zr997      O1002   2.420       .  S
O998       C1003   1.282       .  A
O999       H1016   0.991       .  S
O999       H1031   0.990       .  S
O1000      H1017   0.989       .  S
O1001      H1021   0.990       .  S
O1001      H1030   0.990       .  S
O1002      C1003   1.281   1_554  A
C1003      C3173   1.466       .  S
O1004      H1023   0.990   1_455  S
O1004      H1027   0.990       .  S
O1005      H1019   0.991   1_655  S
O1005      H1026   0.990       .  S
O1006      C1010   1.281       .  A
O1007      C1010   1.291       .  A
O1008      H1018   0.990       .  S
O1009      H1022   0.990       .  S
C1010      C3109   1.494       .  S
Zr1033     O1034   2.444       .  S
Zr1033     O1035   2.437       .  S
Zr1033     O1036   2.431       .  S
Zr1033     O1039   2.422       .  S
Zr1033     O1041   2.377       .  S
Zr1033     O1042   2.382   1_556  S
Zr1033     O1043   2.409       .  S
Zr1033     O1044   2.395       .  S
O1034      H1090   0.990       .  S
O1034      H1098   0.991       .  S
O1035      C1055   1.284       .  A
O1036      C1057   1.282       .  A
O1037     Zr1047   2.435   1_556  S
O1037      C1056   1.285       .  A
O1038     Zr1046   2.452       .  S
O1038      C1057   1.288       .  A
O1039      C1056   1.283       .  A
O1040     Zr1048   2.409       .  S
O1040      C1055   1.278   1_554  A
O1041     Zr1046   2.405       .  S
O1041     Zr1048   2.383   1_556  S
O1042     Zr1047   2.400       .  S
O1042     Zr1048   2.378       .  S
O1042      H1077   0.965       .  S
O1043     Zr1046   2.402       .  S
O1043     Zr1063   2.399       .  S
O1043      H1080   0.966       .  S
O1044     Zr1047   2.391   1_556  S
O1044     Zr1063   2.380       .  S
Zr1045     O1070   2.444       .  S
Zr1045     O1064   2.438   1_554  S
Zr1045     O1072   2.440       .  S
Zr1045     O1060   2.416       .  S
Zr1045     O1051   2.389       .  S
Zr1045     O1052   2.411       .  S
Zr1045     O1053   2.384   1_554  S
Zr1045     O1054   2.379   1_554  S
Zr1046     O1065   2.435       .  S
Zr1046     O1058   2.434       .  S
Zr1046     O1059   2.453       .  S
Zr1046     O1052   2.409   1_556  S
Zr1046     O1053   2.400       .  S
Zr1047     O1049   2.435       .  S
Zr1047     O1071   2.438       .  S
Zr1047     O1073   2.451       .  S
Zr1047     O1051   2.385       .  S
Zr1047     O1054   2.395   1_554  S
Zr1048     O1074   2.436       .  S
Zr1048     O1075   2.436       .  S
Zr1048     O1050   2.436       .  S
Zr1048     O1051   2.383       .  S
Zr1048     O1052   2.388       .  S
O1049      H1086   0.990       .  S
O1050      H1081   0.990       .  S
O1050      H1095   0.990       .  S
O1052      H1078   0.965       .  S
O1053     Zr1063   2.383       .  S
O1054     Zr1063   2.388       .  S
O1054      H1079   0.968   1_556  S
C1055      C3342   1.484       .  S
C1056      C2277   1.480       .  S
C1057      C3918   1.486       .  S
O1058      H1094   0.990       .  S
O1059      C1061   1.287       .  A
O1060      C1061   1.281   1_554  A
C1061      C3534   1.491   1_556  S
O1062     Zr1063   2.437       .  S
O1062      H1091   0.990       .  S
Zr1063     O1066   2.436       .  S
Zr1063     O1067   2.439       .  S
Zr1063     O1068   2.414       .  S
O1064      C1069   1.283       .  A
O1065      H1082   0.990       .  S
O1065      H1097   0.990       .  S
O1066      H1083   0.991       .  S
O1067      H1087   0.990       .  S
O1067      H1096   0.990       .  S
O1068      C1069   1.280       .  A
C1069      C3214   1.489       .  S
O1070      H1089   0.991       .  S
O1070      H1093   0.990       .  S
O1071      H1085   0.990       .  S
O1071      H1092   0.990       .  S
O1072      C1076   1.286       .  A
O1073      C1076   1.287       .  A
O1074      H1084   0.990       .  S
O1075      H1088   0.990       .  S
C1076      C1550   1.495       .  S
Zr1099     O1100   2.444       .  S
Zr1099     O1101   2.460       .  S
Zr1099     O1102   2.432       .  S
Zr1099     O1105   2.419       .  S
Zr1099     O1107   2.375   1_655  S
Zr1099     O1108   2.378       .  S
Zr1099     O1109   2.417   1_655  S
Zr1099     O1110   2.410       .  S
O1100      H1156   0.991       .  S
O1100      H1164   0.989       .  S
O1101      C1121   1.287       .  A
O1102      C1123   1.281   1_655  A
O1103     Zr1113   2.466       .  S
O1103      C1122   1.290       .  A
O1104     Zr1112   2.437       .  S
O1104      C1123   1.284       .  A
O1105      C1122   1.283       .  A
O1106     Zr1114   2.431   1_655  S
O1106      C1121   1.282       .  A
O1107     Zr1112   2.408       .  S
O1107     Zr1114   2.383       .  S
O1108     Zr1113   2.402       .  S
O1108     Zr1114   2.381   1_655  S
O1108      H1143   0.964       .  S
O1109     Zr1112   2.404       .  S
O1109     Zr1129   2.402       .  S
O1109      H1146   0.965       .  S
O1110     Zr1113   2.395       .  S
O1110     Zr1129   2.401   1_655  S
Zr1111     O1136   2.443       .  S
Zr1111     O1130   2.444       .  S
Zr1111     O1138   2.410       .  S
Zr1111     O1126   2.440       .  S
Zr1111     O1117   2.409       .  S
Zr1111     O1118   2.406       .  S
Zr1111     O1119   2.374       .  S
Zr1111     O1120   2.385   1_455  S
Zr1112     O1131   2.438       .  S
Zr1112     O1124   2.434       .  S
Zr1112     O1125   2.440       .  S
Zr1112     O1118   2.405       .  S
Zr1112     O1119   2.399       .  S
Zr1113     O1115   2.437       .  S
Zr1113     O1137   2.434       .  S
Zr1113     O1139   2.458       .  S
Zr1113     O1117   2.397   1_655  S
Zr1113     O1120   2.399       .  S
Zr1114     O1140   2.436   1_455  S
Zr1114     O1141   2.435       .  S
Zr1114     O1116   2.436       .  S
Zr1114     O1117   2.397       .  S
Zr1114     O1118   2.389       .  S
O1115      H1152   0.990       .  S
O1116      H1147   0.990       .  S
O1116      H1161   0.990       .  S
O1118      H1144   0.965       .  S
O1119     Zr1129   2.382       .  S
O1120     Zr1129   2.371   1_655  S
O1120      H1145   0.968       .  S
C1121      C2542   1.499       .  S
C1122      C3854   1.506       .  S
C1123      C2862   1.475       .  S
O1124      H1160   0.990       .  S
O1125      C1127   1.284       .  A
O1126      C1127   1.284       .  A
C1127      C1509   1.478       .  S
O1128     Zr1129   2.439   1_655  S
O1128      H1157   0.991       .  S
Zr1129     O1132   2.436       .  S
Zr1129     O1133   2.440   1_455  S
Zr1129     O1134   2.430       .  S
O1130      C1135   1.284       .  A
O1131      H1148   0.990       .  S
O1131      H1163   0.990       .  S
O1132      H1149   0.989       .  S
O1133      H1153   0.990       .  S
O1133      H1162   0.989       .  S
O1134      C1135   1.283       .  A
C1135      C3086   1.501       .  S
O1136      H1155   0.990       .  S
O1136      H1159   0.991       .  S
O1137      H1151   0.990       .  S
O1137      H1158   0.990       .  S
O1138      C1142   1.281   1_455  A
O1139      C1142   1.289       .  A
O1140      H1150   0.990       .  S
O1141      H1154   0.991       .  S
C1142      C2117   1.497       .  S
C1165      C1166   1.535       .  S
C1165      C1171   1.532       .  S
C1165      C1169   1.546       .  S
C1165      C2213   1.538       .  S
C1166      H1173   1.084       .  S
C1166      C1167   1.365       .  D
C1167      C1168   1.538       .  S
C1167      C1518   1.481       .  S
C1168      C1172   1.536       .  S
C1168      C1170   1.542       .  S
C1168      H1174   1.111       .  S
C1169      H1175   1.082       .  S
C1169      C1170   1.367       .  D
C1170      C1806   1.484       .  S
C1171      H1176   1.087       .  S
C1171      C1172   1.359       .  D
C1172      C1486   1.477       .  S
Zr1177     O1178   2.442       .  S
Zr1177     O1179   2.436       .  S
Zr1177     O1180   2.445       .  S
Zr1177     O1183   2.420       .  S
Zr1177     O1185   2.383       .  S
Zr1177     O1186   2.389       .  S
Zr1177     O1187   2.405       .  S
Zr1177     O1188   2.405       .  S
O1178      H1234   0.991       .  S
O1178      H1242   0.990       .  S
O1179      C1199   1.283       .  A
O1180      C1201   1.285       .  A
O1181     Zr1191   2.436       .  S
O1181      C1200   1.285       .  A
O1182     Zr1190   2.464       .  S
O1182      C1201   1.290       .  A
O1183      C1200   1.282       .  A
O1184     Zr1192   2.424       .  S
O1184      C1199   1.282       .  A
O1185     Zr1190   2.402       .  S
O1185     Zr1192   2.380       .  S
O1186     Zr1191   2.399       .  S
O1186     Zr1192   2.377       .  S
O1186      H1221   0.963       .  S
O1187     Zr1190   2.405       .  S
O1187     Zr1207   2.391       .  S
O1187      H1224   0.967       .  S
O1188     Zr1191   2.401       .  S
O1188     Zr1207   2.389       .  S
Zr1189     O1214   2.443       .  S
Zr1189     O1208   2.433       .  S
Zr1189     O1216   2.418       .  S
Zr1189     O1204   2.400       .  S
Zr1189     O1195   2.394       .  S
Zr1189     O1196   2.406       .  S
Zr1189     O1197   2.378       .  S
Zr1189     O1198   2.374       .  S
Zr1190     O1209   2.437       .  S
Zr1190     O1202   2.435       .  S
Zr1190     O1203   2.465       .  S
Zr1190     O1196   2.402       .  S
Zr1190     O1197   2.395       .  S
Zr1191     O1193   2.435       .  S
Zr1191     O1215   2.436       .  S
Zr1191     O1217   2.466       .  S
Zr1191     O1195   2.391       .  S
Zr1191     O1198   2.392       .  S
Zr1192     O1218   2.436       .  S
Zr1192     O1219   2.435       .  S
Zr1192     O1194   2.437       .  S
Zr1192     O1195   2.402       .  S
Zr1192     O1196   2.390       .  S
O1193      H1230   0.990       .  S
O1194      H1225   0.990       .  S
O1194      H1239   0.990       .  S
O1196      H1222   0.966       .  S
O1197     Zr1207   2.374       .  S
O1198     Zr1207   2.384       .  S
O1198      H1223   0.967       .  S
C1199      C1614   1.478       .  S
C1200      C1477   1.471       .  S
C1201      C1445   1.494       .  S
O1202      H1238   0.990       .  S
O1203      C1205   1.291       .  A
O1204      C1205   1.277       .  A
C1205      C3813   1.482       .  S
O1206     Zr1207   2.439       .  S
O1206      H1235   0.990       .  S
Zr1207     O1210   2.436       .  S
Zr1207     O1211   2.439       .  S
Zr1207     O1212   2.419       .  S
O1208      C1213   1.282       .  A
O1209      H1226   0.990       .  S
O1209      H1241   0.990       .  S
O1210      H1227   0.990       .  S
O1211      H1231   0.990       .  S
O1211      H1240   0.990       .  S
O1212      C1213   1.281       .  A
C1213      C1422   1.470       .  S
O1214      H1233   0.990       .  S
O1214      H1237   0.991       .  S
O1215      H1229   0.990       .  S
O1215      H1236   0.990       .  S
O1216      C1220   1.281       .  A
O1217      C1220   1.290       .  A
O1218      H1228   0.990       .  S
O1219      H1232   0.990       .  S
C1220      C3941   1.499       .  S
C1243      C1244   1.544       .  S
C1243      C1249   1.530       .  S
C1243      C1247   1.546       .  S
C1243      C1541   1.555       .  S
C1244      H1251   1.085       .  S
C1244      C1245   1.365       .  D
C1245      C1246   1.554       .  S
C1245      C2757   1.504       .  S
C1246      C1250   1.557       .  S
C1246      C1248   1.553       .  S
C1246      H1252   1.108       .  S
C1247      H1253   1.081       .  S
C1247      C1248   1.374       .  D
C1248      C1454   1.505       .  S
C1249      H1254   1.087       .  S
C1249      C1250   1.363       .  D
C1250      C1774   1.507       .  S
C1255      C1256   1.542   1_455  S
C1255      C1261   1.544       .  S
C1255      C1259   1.535       .  S
C1255      C1925   1.547       .  S
C1256      H1263   1.086       .  S
C1256      C1257   1.374       .  D
C1257      C1258   1.545   1_655  S
C1257      C4398   1.504       .  S
C1258      C1262   1.544       .  S
C1258      C1260   1.544       .  S
C1258      H1264   1.106       .  S
C1259      H1265   1.086       .  S
C1259      C1260   1.362       .  D
C1260      C1582   1.489       .  S
C1261      H1266   1.082       .  S
C1261      C1262   1.364       .  D
C1262      C1390   1.488       .  S
Zr1267     O1268   2.440       .  S
Zr1267     O1269   2.421       .  S
Zr1267     O1270   2.420       .  S
Zr1267     O1273   2.403       .  S
Zr1267     O1275   2.376       .  S
Zr1267     O1276   2.380       .  S
Zr1267     O1277   2.398       .  S
Zr1267     O1278   2.399       .  S
O1268      H1324   0.991       .  S
O1268      H1332   0.990       .  S
O1269      C1289   1.282       .  A
O1270      C1291   1.281       .  A
O1271     Zr1281   2.477       .  S
O1271      C1290   1.292       .  A
O1272     Zr1280   2.456       .  S
O1272      C1291   1.288       .  A
O1273      C1290   1.279       .  A
O1274     Zr1282   2.411       .  S
O1274      C1289   1.279       .  A
O1275     Zr1280   2.391       .  S
O1275     Zr1282   2.380       .  S
O1276     Zr1281   2.386       .  S
O1276     Zr1282   2.375       .  S
O1276      H1311   0.966       .  S
O1277     Zr1280   2.400       .  S
O1277     Zr1297   2.397       .  S
O1277      H1314   0.966       .  S
O1278     Zr1281   2.396       .  S
O1278     Zr1297   2.402       .  S
Zr1279     O1304   2.442       .  S
Zr1279     O1298   2.444       .  S
Zr1279     O1306   2.427       .  S
Zr1279     O1294   2.426       .  S
Zr1279     O1285   2.396       .  S
Zr1279     O1286   2.403       .  S
Zr1279     O1287   2.375       .  S
Zr1279     O1288   2.384       .  S
Zr1280     O1299   2.437       .  S
Zr1280     O1292   2.437       .  S
Zr1280     O1293   2.447       .  S
Zr1280     O1286   2.399       .  S
Zr1280     O1287   2.399       .  S
Zr1281     O1283   2.434       .  S
Zr1281     O1305   2.438       .  S
Zr1281     O1307   2.455       .  S
Zr1281     O1285   2.398       .  S
Zr1281     O1288   2.403       .  S
Zr1282     O1308   2.436       .  S
Zr1282     O1309   2.437       .  S
Zr1282     O1284   2.437       .  S
Zr1282     O1285   2.381       .  S
Zr1282     O1286   2.392       .  S
O1283      H1320   0.990       .  S
O1284      H1315   0.990       .  S
O1284      H1329   0.990       .  S
O1286      H1312   0.966       .  S
O1287     Zr1297   2.374       .  S
O1288     Zr1297   2.384       .  S
O1288      H1313   0.966       .  S
C1289      C3150   1.481       .  S
C1290      C1381   1.482       .  S
C1291      C3022   1.481       .  S
O1292      H1328   0.990       .  S
O1293      C1295   1.287       .  A
O1294      C1295   1.284       .  A
C1295      C1349   1.477       .  S
O1296     Zr1297   2.439       .  S
O1296      H1325   0.990       .  S
Zr1297     O1300   2.437       .  S
Zr1297     O1301   2.439       .  S
Zr1297     O1302   2.428       .  S
O1298      C1303   1.285       .  A
O1299      H1316   0.990       .  S
O1299      H1331   0.990       .  S
O1300      H1317   0.990       .  S
O1301      H1321   0.990       .  S
O1301      H1330   0.990       .  S
O1302      C1303   1.282       .  A
C1303      C2638   1.479       .  S
O1304      H1323   0.990       .  S
O1304      H1327   0.991       .  S
O1305      H1319   0.990       .  S
O1305      H1326   0.990       .  S
O1306      C1310   1.283       .  A
O1307      C1310   1.289       .  A
O1308      H1318   0.990       .  S
O1309      H1322   0.991       .  S
C1310      C3374   1.484       .  S
C1333      C1334   1.544       .  S
C1333      C1339   1.534       .  S
C1333      C1337   1.546       .  S
C1333      C1637   1.544       .  S
C1334      H1341   1.083       .  S
C1334      C1335   1.358       .  D
C1335      C1336   1.535       .  S
C1335      C4302   1.481       .  S
C1336      C1340   1.536       .  S
C1336      C1338   1.534       .  S
C1336      H1342   1.111       .  S
C1337      H1343   1.083       .  S
C1337      C1338   1.369       .  D
C1338      C1413   1.478       .  S
C1339      H1344   1.086       .  S
C1339      C1340   1.367       .  D
C1340      C1358   1.481       .  S
C1345      C1346   1.402       .  A
C1345      C1350   1.402       .  A
C1345      H1355   1.085       .  S
C1346      C1351   1.483       .  S
C1346      C1347   1.412       .  A
C1347      C1352   1.506       .  S
C1347      C1348   1.407       .  A
C1348      C1349   1.405       .  A
C1348      H1353   1.084       .  S
C1349      C1350   1.415       .  A
C1350      C1354   1.507       .  S
C1351      C1356   1.412       .  A
C1351      C1360   1.403       .  A
C1352      H1368   1.109       .  S
C1352      H1369   1.110       .  S
C1352      H1370   1.111       .  S
C1354      H1365   1.110       .  S
C1354      H1366   1.110       .  S
C1354      H1367   1.108       .  S
C1356      C1361   1.506       .  S
C1356      C1357   1.404       .  A
C1357      C1358   1.404       .  A
C1357      H1362   1.083       .  S
C1358      C1359   1.413       .  A
C1359      C1363   1.507       .  S
C1359      C1360   1.401       .  A
C1360      H1364   1.084       .  S
C1361      H1371   1.111       .  S
C1361      H1372   1.109       .  S
C1361      H1373   1.110       .  S
C1363      H1374   1.110       .  S
C1363      H1375   1.108       .  S
C1363      H1376   1.111       .  S
C1377      C1378   1.404       .  A
C1377      C1382   1.408       .  A
C1377      H1387   1.084       .  S
C1378      C1383   1.488       .  S
C1378      C1379   1.410       .  A
C1379      C1384   1.506       .  S
C1379      C1380   1.405       .  A
C1380      C1381   1.406       .  A
C1380      H1385   1.084       .  S
C1381      C1382   1.417       .  A
C1382      C1386   1.506       .  S
C1383      C1388   1.414       .  A
C1383      C1392   1.400       .  A
C1384      H1400   1.110       .  S
C1384      H1401   1.110       .  S
C1384      H1402   1.111       .  S
C1386      H1397   1.111       .  S
C1386      H1398   1.110       .  S
C1386      H1399   1.106       .  S
C1388      C1393   1.505       .  S
C1388      C1389   1.409       .  A
C1389      C1390   1.403       .  A
C1389      H1394   1.084       .  S
C1390      C1391   1.420       .  A
C1391      C1395   1.508       .  S
C1391      C1392   1.403       .  A
C1392      H1396   1.085       .  S
C1393      H1403   1.111       .  S
C1393      H1404   1.110       .  S
C1393      H1405   1.110       .  S
C1395      H1406   1.110       .  S
C1395      H1407   1.107       .  S
C1395      H1408   1.111       .  S
C1409      C1410   1.402       .  A
C1409      C1414   1.404       .  A
C1409      H1419   1.085       .  S
C1410      C1415   1.479       .  S
C1410      C1411   1.409       .  A
C1411      C1416   1.506       .  S
C1411      C1412   1.401       .  A
C1412      C1413   1.402       .  A
C1412      H1417   1.082       .  S
C1413      C1414   1.416       .  A
C1414      C1418   1.508       .  S
C1415      C1420   1.413       .  A
C1415      C1424   1.400       .  A
C1416      H1432   1.110       .  S
C1416      H1433   1.109       .  S
C1416      H1434   1.111       .  S
C1418      H1429   1.111       .  S
C1418      H1430   1.110       .  S
C1418      H1431   1.107       .  S
C1420      C1425   1.507       .  S
C1420      C1421   1.403       .  A
C1421      C1422   1.401       .  A
C1421      H1426   1.084       .  S
C1422      C1423   1.416       .  A
C1423      C1427   1.509       .  S
C1423      C1424   1.403       .  A
C1424      H1428   1.084       .  S
C1425      H1435   1.111       .  S
C1425      H1436   1.111       .  S
C1425      H1437   1.109       .  S
C1427      H1438   1.110       .  S
C1427      H1439   1.108       .  S
C1427      H1440   1.110       .  S
C1441      C1442   1.406       .  A
C1441      C1446   1.413       .  A
C1441      H1451   1.084       .  S
C1442      C1447   1.499       .  S
C1442      C1443   1.412       .  A
C1443      C1448   1.506       .  S
C1443      C1444   1.408       .  A
C1444      C1445   1.407       .  A
C1444      H1449   1.084       .  S
C1445      C1446   1.419       .  A
C1446      C1450   1.506       .  S
C1447      C1452   1.412       .  A
C1447      C1456   1.402       .  A
C1448      H1464   1.110       .  S
C1448      H1465   1.110       .  S
C1448      H1466   1.111       .  S
C1450      H1461   1.110       .  S
C1450      H1462   1.111       .  S
C1450      H1463   1.107       .  S
C1452      C1457   1.505       .  S
C1452      C1453   1.412       .  A
C1453      C1454   1.410       .  A
C1453      H1458   1.084       .  S
C1454      C1455   1.419       .  A
C1455      C1459   1.505       .  S
C1455      C1456   1.409       .  A
C1456      H1460   1.084       .  S
C1457      H1467   1.111       .  S
C1457      H1468   1.110       .  S
C1457      H1469   1.110       .  S
C1459      H1470   1.110       .  S
C1459      H1471   1.105       .  S
C1459      H1472   1.106       .  S
C1473      C1474   1.401       .  A
C1473      C1478   1.401       .  A
C1473      H1483   1.084       .  S
C1474      C1479   1.479       .  S
C1474      C1475   1.413       .  A
C1475      C1480   1.507       .  S
C1475      C1476   1.403       .  A
C1476      C1477   1.402       .  A
C1476      H1481   1.084       .  S
C1477      C1478   1.415       .  A
C1478      C1482   1.508       .  S
C1479      C1484   1.411       .  A
C1479      C1488   1.401       .  A
C1480      H1496   1.109       .  S
C1480      H1497   1.110       .  S
C1480      H1498   1.111       .  S
C1482      H1493   1.111       .  S
C1482      H1494   1.110       .  S
C1482      H1495   1.108       .  S
C1484      C1489   1.507       .  S
C1484      C1485   1.401       .  A
C1485      C1486   1.404       .  A
C1485      H1490   1.085       .  S
C1486      C1487   1.414       .  A
C1487      C1491   1.505       .  S
C1487      C1488   1.401       .  A
C1488      H1492   1.085       .  S
C1489      H1499   1.111       .  S
C1489      H1500   1.109       .  S
C1489      H1501   1.110       .  S
C1491      H1502   1.110       .  S
C1491      H1503   1.101       .  S
C1491      H1504   1.111       .  S
C1505      C1506   1.401       .  A
C1505      C1510   1.402       .  A
C1505      H1515   1.085       .  S
C1506      C1511   1.483       .  S
C1506      C1507   1.411       .  A
C1507      C1512   1.506       .  S
C1507      C1508   1.408       .  A
C1508      C1509   1.406       .  A
C1508      H1513   1.084       .  S
C1509      C1510   1.414       .  A
C1510      C1514   1.507       .  S
C1511      C1516   1.411       .  A
C1511      C1520   1.402       .  A
C1512      H1528   1.110       .  S
C1512      H1529   1.110       .  S
C1512      H1530   1.111       .  S
C1514      H1525   1.111       .  S
C1514      H1526   1.110       .  S
C1514      H1527   1.109       .  S
C1516      C1521   1.505       .  S
C1516      C1517   1.408       .  A
C1517      C1518   1.404       .  A
C1517      H1522   1.084       .  S
C1518      C1519   1.414       .  A
C1519      C1523   1.508       .  S
C1519      C1520   1.401       .  A
C1520      H1524   1.085       .  S
C1521      H1531   1.111       .  S
C1521      H1532   1.110       .  S
C1521      H1533   1.110       .  S
C1523      H1534   1.110       .  S
C1523      H1535   1.109       .  S
C1523      H1536   1.110       .  S
C1537      C1538   1.398       .  A
C1537      C1542   1.414       .  A
C1537      H1547   1.084       .  S
C1538      C1543   1.492       .  S
C1538      C1539   1.406       .  A
C1539      C1544   1.508       .  S
C1539      C1540   1.404       .  A
C1540      C1541   1.417       .  A
C1540      H1545   1.079       .  S
C1541      C1542   1.434       .  A
C1542      C1546   1.508       .  S
C1543      C1548   1.410       .  A
C1543      C1552   1.404       .  A
C1544      H1560   1.110       .  S
C1544      H1561   1.110       .  S
C1544      H1562   1.111       .  S
C1546      H1557   1.111       .  S
C1546      H1558   1.104       .  S
C1546      H1559   1.105       .  S
C1548      C1553   1.506       .  S
C1548      C1549   1.407       .  A
C1549      C1550   1.409       .  A
C1549      H1554   1.084       .  S
C1550      C1551   1.418       .  A
C1551      C1555   1.507       .  S
C1551      C1552   1.410       .  A
C1552      H1556   1.084       .  S
C1553      H1563   1.111       .  S
C1553      H1564   1.110       .  S
C1553      H1565   1.110       .  S
C1555      H1566   1.110       .  S
C1555      H1567   1.111       .  S
C1555      H1568   1.111       .  S
C1569      C1570   1.405   1_655  A
C1569      C1574   1.412       .  A
C1569      H1579   1.084       .  S
C1570      C1575   1.487       .  S
C1570      C1571   1.408       .  A
C1571      C1576   1.508       .  S
C1571      C1572   1.400       .  A
C1572      C1573   1.411   1_455  A
C1572      H1577   1.084       .  S
C1573      C1574   1.419       .  A
C1574      C1578   1.506       .  S
C1575      C1580   1.412   1_455  A
C1575      C1584   1.402       .  A
C1576      H1592   1.109       .  S
C1576      H1593   1.111       .  S
C1576      H1594   1.111       .  S
C1578      H1589   1.110       .  S
C1578      H1590   1.111       .  S
C1578      H1591   1.110   1_556  S
C1580      C1585   1.506       .  S
C1580      C1581   1.405       .  A
C1581      C1582   1.404   1_655  A
C1581      H1586   1.084       .  S
C1582      C1583   1.419       .  A
C1583      C1587   1.508       .  S
C1583      C1584   1.405       .  A
C1584      H1588   1.085       .  S
C1585      H1595   1.111       .  S
C1585      H1596   1.110       .  S
C1585      H1597   1.110       .  S
C1587      H1598   1.110       .  S
C1587      H1599   1.108       .  S
C1587      H1600   1.111       .  S
C1601      C1602   1.402       .  A
C1601      C1606   1.402       .  A
C1601      H1611   1.084       .  S
C1602      C1607   1.480       .  S
C1602      C1603   1.411       .  A
C1603      C1608   1.506       .  S
C1603      C1604   1.405       .  A
C1604      C1605   1.404       .  A
C1604      H1609   1.084       .  S
C1605      C1606   1.410       .  A
C1606      C1610   1.506       .  S
C1607      C1612   1.409       .  A
C1607      C1616   1.403       .  A
C1608      H1624   1.110       .  S
C1608      H1625   1.109       .  S
C1608      H1626   1.111       .  S
C1610      H1621   1.111       .  S
C1610      H1622   1.109       .  S
C1610      H1623   1.110       .  S
C1612      C1617   1.507       .  S
C1612      C1613   1.400       .  A
C1613      C1614   1.404       .  A
C1613      H1618   1.085       .  S
C1614      C1615   1.417       .  A
C1615      C1619   1.507       .  S
C1615      C1616   1.407       .  A
C1616      H1620   1.084       .  S
C1617      H1627   1.111       .  S
C1617      H1628   1.110       .  S
C1617      H1629   1.109       .  S
C1619      H1630   1.111       .  S
C1619      H1631   1.106       .  S
C1619      H1632   1.111       .  S
C1633      C1634   1.399       .  A
C1633      C1638   1.410       .  A
C1633      H1643   1.084       .  S
C1634      C1639   1.477       .  S
C1634      C1635   1.402       .  A
C1635      C1640   1.510       .  S
C1635      C1636   1.395       .  A
C1636      C1637   1.415       .  A
C1636      H1641   1.076       .  S
C1637      C1638   1.430       .  A
C1638      C1642   1.511       .  S
C1639      C1644   1.408       .  A
C1639      C1648   1.399       .  A
C1640      H1656   1.110       .  S
C1640      H1657   1.110       .  S
C1640      H1658   1.111       .  S
C1642      H1653   1.111       .  S
C1642      H1654   1.108       .  S
C1642      H1655   1.105       .  S
C1644      C1649   1.507       .  S
C1644      C1645   1.401       .  A
C1645      C1646   1.407       .  A
C1645      H1650   1.084       .  S
C1646      C1647   1.421       .  A
C1647      C1651   1.507       .  S
C1647      C1648   1.404       .  A
C1648      H1652   1.084       .  S
C1649      H1659   1.111       .  S
C1649      H1660   1.110       .  S
C1649      H1661   1.110       .  S
C1651      H1662   1.111       .  S
C1651      H1663   1.109       .  S
C1651      H1664   1.110       .  S
C1665      C1666   1.403       .  A
C1665      C1670   1.402       .  A
C1665      H1675   1.085       .  S
C1666      C1671   1.474       .  S
C1666      C1667   1.407       .  A
C1667      C1672   1.507       .  S
C1667      C1668   1.398       .  A
C1668      C1669   1.406       .  A
C1668      H1673   1.084       .  S
C1669      C1670   1.414       .  A
C1670      C1674   1.509       .  S
C1671      C1676   1.404       .  A
C1671      C1680   1.400       .  A
C1672      H1688   1.109       .  S
C1672      H1689   1.110       .  S
C1672      H1690   1.111       .  S
C1674      H1685   1.110       .  S
C1674      H1686   1.111       .  S
C1674      H1687   1.107       .  S
C1676      C1681   1.508       .  S
C1676      C1677   1.397       .  A
C1677      C1678   1.413       .  A
C1677      H1682   1.080       .  S
C1678      C1679   1.423       .  A
C1679      C1683   1.508       .  S
C1679      C1680   1.403       .  A
C1680      H1684   1.084       .  S
C1681      H1691   1.111       .  S
C1681      H1692   1.109       .  S
C1681      H1693   1.111       .  S
C1683      H1694   1.110       .  S
C1683      H1695   1.106       .  S
C1683      H1696   1.111       .  S
C1697      C1698   1.400       .  A
C1697      C1702   1.402       .  A
C1697      H1707   1.084       .  S
C1698      C1703   1.486       .  S
C1698      C1699   1.413       .  A
C1699      C1704   1.506       .  S
C1699      C1700   1.408       .  A
C1700      C1701   1.403       .  A
C1700      H1705   1.084       .  S
C1701      C1702   1.414       .  A
C1702      C1706   1.506       .  S
C1703      C1708   1.411   1_554  A
C1703      C1712   1.399       .  A
C1704      H1720   1.110       .  S
C1704      H1721   1.110       .  S
C1704      H1722   1.111       .  S
C1706      H1717   1.110       .  S
C1706      H1718   1.107       .  S
C1706      H1719   1.109   1_554  S
C1708      C1713   1.506       .  S
C1708      C1709   1.407       .  A
C1709      C1710   1.409   1_556  A
C1709      H1714   1.084       .  S
C1710      C1711   1.422       .  A
C1711      C1715   1.507       .  S
C1711      C1712   1.405       .  A
C1712      H1716   1.084       .  S
C1713      H1723   1.111       .  S
C1713      H1724   1.109       .  S
C1713      H1725   1.110       .  S
C1715      H1726   1.110       .  S
C1715      H1727   1.109       .  S
C1715      H1728   1.111       .  S
C1729      C1730   1.401   1_565  A
C1729      C1734   1.410       .  A
C1729      H1739   1.084       .  S
C1730      C1735   1.499       .  S
C1730      C1731   1.413       .  A
C1731      C1736   1.507       .  S
C1731      C1732   1.413       .  A
C1732      C1733   1.411       .  A
C1732      H1737   1.083       .  S
C1733      C1734   1.426   1_545  A
C1734      C1738   1.508       .  S
C1735      C1740   1.410       .  A
C1735      C1744   1.401   1_545  A
C1736      H1752   1.111       .  S
C1736      H1753   1.107       .  S
C1736      H1754   1.110       .  S
C1738      H1749   1.106       .  S
C1738      H1750   1.111       .  S
C1738      H1751   1.111       .  S
C1740      C1745   1.510       .  S
C1740      C1741   1.409       .  A
C1741      C1742   1.418       .  A
C1741      H1746   1.079       .  S
C1742      C1743   1.431   1_545  A
C1743      C1747   1.508       .  S
C1743      C1744   1.413       .  A
C1744      H1748   1.085       .  S
C1745      H1755   1.111       .  S
C1745      H1756   1.110       .  S
C1745      H1757   1.107       .  S
C1747      H1758   1.111       .  S
C1747      H1759   1.102       .  S
C1747      H1760   1.110       .  S
C1761      C1762   1.400       .  A
C1761      C1766   1.411       .  A
C1761      H1771   1.084       .  S
C1762      C1767   1.500       .  S
C1762      C1763   1.413       .  A
C1763      C1768   1.506       .  S
C1763      C1764   1.411       .  A
C1764      C1765   1.411       .  A
C1764      H1769   1.083       .  S
C1765      C1766   1.428       .  A
C1766      C1770   1.507       .  S
C1767      C1772   1.416       .  A
C1767      C1776   1.398       .  A
C1768      H1784   1.109       .  S
C1768      H1785   1.110       .  S
C1768      H1786   1.111       .  S
C1770      H1781   1.108       .  S
C1770      H1782   1.111       .  S
C1770      H1783   1.109       .  S
C1772      C1777   1.505       .  S
C1772      C1773   1.417       .  A
C1773      C1774   1.406       .  A
C1773      H1778   1.084       .  S
C1774      C1775   1.426       .  A
C1775      C1779   1.507       .  S
C1775      C1776   1.405       .  A
C1776      H1780   1.085       .  S
C1777      H1787   1.110       .  S
C1777      H1788   1.110       .  S
C1777      H1789   1.111       .  S
C1779      H1790   1.111       .  S
C1779      H1791   1.103       .  S
C1779      H1792   1.111       .  S
C1793      C1794   1.405       .  A
C1793      C1798   1.410       .  A
C1793      H1803   1.084       .  S
C1794      C1799   1.482       .  S
C1794      C1795   1.407       .  A
C1795      C1800   1.508       .  S
C1795      C1796   1.396       .  A
C1796      C1797   1.409       .  A
C1796      H1801   1.082       .  S
C1797      C1798   1.418       .  A
C1798      C1802   1.506       .  S
C1799      C1804   1.413       .  A
C1799      C1808   1.399       .  A
C1800      H1816   1.110       .  S
C1800      H1817   1.110       .  S
C1800      H1818   1.111       .  S
C1802      H1813   1.110       .  S
C1802      H1814   1.111       .  S
C1802      H1815   1.110       .  S
C1804      C1809   1.507       .  S
C1804      C1805   1.405       .  A
C1805      C1806   1.403       .  A
C1805      H1810   1.084       .  S
C1806      C1807   1.419       .  A
C1807      C1811   1.509       .  S
C1807      C1808   1.402       .  A
C1808      H1812   1.084       .  S
C1809      H1819   1.111       .  S
C1809      H1820   1.110       .  S
C1809      H1821   1.110       .  S
C1811      H1822   1.107       .  S
C1811      H1823   1.110       .  S
C1811      H1824   1.111       .  S
C1825      C1826   1.400       .  A
C1825      C1830   1.402       .  A
C1825      H1835   1.085       .  S
C1826      C1831   1.477       .  S
C1826      C1827   1.408       .  A
C1827      C1832   1.507       .  S
C1827      C1828   1.403       .  A
C1828      C1829   1.406       .  A
C1828      H1833   1.083       .  S
C1829      C1830   1.417       .  A
C1830      C1834   1.508       .  S
C1831      C1836   1.410       .  A
C1831      C1840   1.400       .  A
C1832      H1848   1.110       .  S
C1832      H1849   1.109       .  S
C1832      H1850   1.111       .  S
C1834      H1845   1.110       .  S
C1834      H1846   1.110       .  S
C1834      H1847   1.107       .  S
C1836      C1841   1.506       .  S
C1836      C1837   1.404       .  A
C1837      C1838   1.403       .  A
C1837      H1842   1.084       .  S
C1838      C1839   1.414       .  A
C1839      C1843   1.506       .  S
C1839      C1840   1.400       .  A
C1840      H1844   1.085       .  S
C1841      H1851   1.111       .  S
C1841      H1852   1.110       .  S
C1841      H1853   1.109       .  S
C1843      H1854   1.110       .  S
C1843      H1855   1.108       .  S
C1843      H1856   1.110       .  S
C1857      C1858   1.405       .  A
C1857      C1862   1.413       .  A
C1857      H1867   1.084       .  S
C1858      C1863   1.505       .  S
C1858      C1859   1.413       .  A
C1859      C1864   1.505       .  S
C1859      C1860   1.411       .  A
C1860      C1861   1.408       .  A
C1860      H1865   1.084       .  S
C1861      C1862   1.423       .  A
C1862      C1866   1.503       .  S
C1863      C1868   1.413       .  A
C1863      C1872   1.407       .  A
C1864      H1880   1.109       .  S
C1864      H1881   1.111       .  S
C1864      H1882   1.111       .  S
C1866      H1877   1.095       .  S
C1866      H1878   1.110       .  S
C1866      H1879   1.110       .  S
C1868      C1873   1.506       .  S
C1868      C1869   1.413       .  A
C1869      C1870   1.411       .  A
C1869      H1874   1.084       .  S
C1870      C1871   1.418       .  A
C1871      C1875   1.506       .  S
C1871      C1872   1.415       .  A
C1872      H1876   1.084       .  S
C1873      H1883   1.111       .  S
C1873      H1884   1.109       .  S
C1873      H1885   1.111       .  S
C1875      H1886   1.110       .  S
C1875      H1887   1.109       .  S
C1875      H1888   1.111       .  S
C1889      C1890   1.396       .  A
C1889      C1894   1.405       .  A
C1889      H1899   1.085       .  S
C1890      C1895   1.482       .  S
C1890      C1891   1.405       .  A
C1891      C1896   1.510       .  S
C1891      C1892   1.402       .  A
C1892      C1893   1.416       .  A
C1892      H1897   1.072       .  S
C1893      C1894   1.432       .  A
C1894      C1898   1.510       .  S
C1895      C1900   1.411       .  A
C1895      C1904   1.405       .  A
C1896      H1912   1.110       .  S
C1896      H1913   1.111       .  S
C1896      H1914   1.111       .  S
C1898      H1909   1.111       .  S
C1898      H1910   1.110       .  S
C1898      H1911   1.099       .  S
C1900      C1905   1.508       .  S
C1900      C1901   1.398       .  A
C1901      C1902   1.402       .  A
C1901      H1906   1.085       .  S
C1902      C1903   1.414       .  A
C1903      C1907   1.506       .  S
C1903      C1904   1.407       .  A
C1904      H1908   1.084       .  S
C1905      H1915   1.111       .  S
C1905      H1916   1.110       .  S
C1905      H1917   1.110       .  S
C1907      H1918   1.110       .  S
C1907      H1919   1.108       .  S
C1907      H1920   1.110       .  S
C1921      C1922   1.400       .  A
C1921      C1926   1.407       .  A
C1921      H1931   1.084       .  S
C1922      C1927   1.495       .  S
C1922      C1923   1.413   1_655  A
C1923      C1928   1.510       .  S
C1923      C1924   1.405       .  A
C1924      C1925   1.413       .  A
C1924      H1929   1.077       .  S
C1925      C1926   1.429   1_455  A
C1926      C1930   1.511       .  S
C1927      C1932   1.412       .  A
C1927      C1936   1.404   1_655  A
C1928      H1944   1.109       .  S
C1928      H1945   1.110       .  S
C1928      H1946   1.111       .  S
C1930      H1941   1.111       .  S
C1930      H1942   1.110       .  S
C1930      H1943   1.104       .  S
C1932      C1937   1.509       .  S
C1932      C1933   1.404       .  A
C1933      C1934   1.410       .  A
C1933      H1938   1.085       .  S
C1934      C1935   1.421   1_655  A
C1935      C1939   1.507   1_556  S
C1935      C1936   1.409       .  A
C1936      H1940   1.085       .  S
C1937      H1947   1.111       .  S
C1937      H1948   1.109       .  S
C1937      H1949   1.110       .  S
C1939      H1950   1.110       .  S
C1939      H1951   1.101       .  S
C1939      H1952   1.111   1_554  S
C1953      C1954   1.401   1_556  A
C1953      C1958   1.403       .  A
C1953      H1963   1.085       .  S
C1954      C1959   1.482       .  S
C1954      C1955   1.410       .  A
C1955      C1960   1.506       .  S
C1955      C1956   1.403       .  A
C1956      C1957   1.404       .  A
C1956      H1961   1.084       .  S
C1957      C1958   1.416   1_554  A
C1958      C1962   1.504       .  S
C1959      C1964   1.410       .  A
C1959      C1968   1.401       .  A
C1960      H1976   1.110       .  S
C1960      H1977   1.110       .  S
C1960      H1978   1.111       .  S
C1962      H1973   1.111       .  S
C1962      H1974   1.110       .  S
C1962      H1975   1.101       .  S
C1964      C1969   1.507       .  S
C1964      C1965   1.402       .  A
C1965      C1966   1.407       .  A
C1965      H1970   1.084       .  S
C1966      C1967   1.417       .  A
C1967      C1971   1.506       .  S
C1967      C1968   1.406       .  A
C1968      H1972   1.084       .  S
C1969      H1979   1.110       .  S
C1969      H1980   1.110       .  S
C1969      H1981   1.110       .  S
C1971      H1982   1.109   1_554  S
C1971      H1983   1.111       .  S
C1971      H1984   1.111       .  S
C1985      C1986   1.403       .  A
C1985      C1990   1.409       .  A
C1985      H1995   1.084       .  S
C1986      C1991   1.497       .  S
C1986      C1987   1.413   1_545  A
C1987      C1992   1.506       .  S
C1987      C1988   1.411       .  A
C1988      C1989   1.407       .  A
C1988      H1993   1.084       .  S
C1989      C1990   1.421   1_565  A
C1990      C1994   1.509       .  S
C1991      C1996   1.412   1_545  A
C1991      C2000   1.404       .  A
C1992      H2008   1.110       .  S
C1992      H2009   1.110       .  S
C1992      H2010   1.111       .  S
C1994      H2005   1.111       .  S
C1994      H2006   1.110       .  S
C1994      H2007   1.107       .  S
C1996      C2001   1.506       .  S
C1996      C1997   1.408   1_565  A
C1997      C1998   1.407       .  A
C1997      H2002   1.083   1_545  S
C1998      C1999   1.420       .  A
C1999      C2003   1.508       .  S
C1999      C2000   1.410       .  A
C2000      H2004   1.084       .  S
C2001      H2011   1.111       .  S
C2001      H2012   1.110       .  S
C2001      H2013   1.110       .  S
C2003      H2014   1.111       .  S
C2003      H2015   1.107       .  S
C2003      H2016   1.110       .  S
C2017      C2018   1.400       .  A
C2017      C2022   1.398       .  A
C2017      H2027   1.085       .  S
C2018      C2023   1.469   1_655  S
C2018      C2019   1.408   1_655  A
C2019      C2024   1.506       .  S
C2019      C2020   1.399       .  A
C2020      C2021   1.401   1_455  A
C2020      H2025   1.084       .  S
C2021      C2022   1.411       .  A
C2022      C2026   1.506       .  S
C2023      C2028   1.410   1_455  A
C2023      C2032   1.395       .  A
C2024      H2040   1.110       .  S
C2024      H2041   1.110       .  S
C2024      H2042   1.111       .  S
C2026      H2037   1.110       .  S
C2026      H2038   1.110       .  S
C2026      H2039   1.105       .  S
C2028      C2033   1.506       .  S
C2028      C2029   1.403       .  A
C2029      C2030   1.403       .  A
C2029      H2034   1.084   1_554  S
C2030      C2031   1.418   1_655  A
C2031      C2035   1.509       .  S
C2031      C2032   1.396       .  A
C2032      H2036   1.085       .  S
C2033      H2043   1.111   1_554  S
C2033      H2044   1.110       .  S
C2033      H2045   1.110   1_655  S
C2035      H2046   1.110   1_455  S
C2035      H2047   1.107       .  S
C2035      H2048   1.111       .  S
C2049      C2050   1.399       .  A
C2049      C2054   1.397       .  A
C2049      H2059   1.085       .  S
C2050      C2055   1.473       .  S
C2050      C2051   1.410       .  A
C2051      C2056   1.506       .  S
C2051      C2052   1.402       .  A
C2052      C2053   1.402       .  A
C2052      H2057   1.082       .  S
C2053      C2054   1.415       .  A
C2054      C2058   1.506       .  S
C2055      C2060   1.411       .  A
C2055      C2064   1.397       .  A
C2056      H2072   1.110       .  S
C2056      H2073   1.110       .  S
C2056      H2074   1.111       .  S
C2058      H2069   1.111       .  S
C2058      H2070   1.110       .  S
C2058      H2071   1.104       .  S
C2060      C2065   1.506       .  S
C2060      C2061   1.402       .  A
C2061      C2062   1.404       .  A
C2061      H2066   1.084       .  S
C2062      C2063   1.417       .  A
C2063      C2067   1.509       .  S
C2063      C2064   1.398       .  A
C2064      H2068   1.084       .  S
C2065      H2075   1.111       .  S
C2065      H2076   1.110       .  S
C2065      H2077   1.110       .  S
C2067      H2078   1.109       .  S
C2067      H2079   1.110       .  S
C2067      H2080   1.111       .  S
C2081      C2082   1.400       .  A
C2081      C2086   1.404       .  A
C2081      H2091   1.085       .  S
C2082      C2087   1.477       .  S
C2082      C2083   1.408   1_655  A
C2083      C2088   1.507       .  S
C2083      C2084   1.401       .  A
C2084      C2085   1.405   1_455  A
C2084      H2089   1.084       .  S
C2085      C2086   1.420       .  A
C2086      C2090   1.508       .  S
C2087      C2092   1.401       .  A
C2087      C2096   1.395       .  A
C2088      H2104   1.110       .  S
C2088      H2105   1.110       .  S
C2088      H2106   1.110       .  S
C2090      H2101   1.111   1_554  S
C2090      H2102   1.111       .  S
C2090      H2103   1.104       .  S
C2092      C2097   1.507       .  S
C2092      C2093   1.403       .  A
C2093      C2094   1.420       .  A
C2093      H2098   1.072       .  S
C2094      C2095   1.429       .  A
C2095      C2099   1.510       .  S
C2095      C2096   1.399       .  A
C2096      H2100   1.085       .  S
C2097      H2107   1.111       .  S
C2097      H2108   1.110   1_554  S
C2097      H2109   1.110   1_654  S
C2099      H2110   1.110       .  S
C2099      H2111   1.098       .  S
C2099      H2112   1.111   1_655  S
C2113      C2114   1.402       .  A
C2113      C2118   1.409       .  A
C2113      H2123   1.084       .  S
C2114      C2119   1.486       .  S
C2114      C2115   1.408   1_655  A
C2115      C2120   1.508       .  S
C2115      C2116   1.402       .  A
C2116      C2117   1.412   1_455  A
C2116      H2121   1.084       .  S
C2117      C2118   1.420       .  A
C2118      C2122   1.506       .  S
C2119      C2124   1.405       .  A
C2119      C2128   1.400   1_655  A
C2120      H2136   1.110       .  S
C2120      H2137   1.110       .  S
C2120      H2138   1.111       .  S
C2122      H2133   1.109       .  S
C2122      H2134   1.110       .  S
C2122      H2135   1.110       .  S
C2124      C2129   1.509       .  S
C2124      C2125   1.400       .  A
C2125      C2126   1.416       .  A
C2125      H2130   1.076       .  S
C2126      C2127   1.429   1_655  A
C2127      C2131   1.510       .  S
C2127      C2128   1.409       .  A
C2128      H2132   1.085       .  S
C2129      H2139   1.111       .  S
C2129      H2140   1.110       .  S
C2129      H2141   1.110       .  S
C2131      H2142   1.103       .  S
C2131      H2143   1.111       .  S
C2131      H2144   1.110       .  S
C2145      C2146   1.402   1_455  A
C2145      C2150   1.406       .  A
C2145      H2155   1.084       .  S
C2146      C2151   1.484       .  S
C2146      C2147   1.409       .  A
C2147      C2152   1.506       .  S
C2147      C2148   1.404       .  A
C2148      C2149   1.405       .  A
C2148      H2153   1.083       .  S
C2149      C2150   1.416   1_655  A
C2150      C2154   1.507       .  S
C2151      C2156   1.411       .  A
C2151      C2160   1.402       .  A
C2152      H2168   1.110       .  S
C2152      H2169   1.110       .  S
C2152      H2170   1.111       .  S
C2154      H2165   1.107       .  S
C2154      H2166   1.111       .  S
C2154      H2167   1.111       .  S
C2156      C2161   1.505       .  S
C2156      C2157   1.405       .  A
C2157      C2158   1.403       .  A
C2157      H2162   1.084       .  S
C2158      C2159   1.416       .  A
C2159      C2163   1.506   1_655  S
C2159      C2160   1.404       .  A
C2160      H2164   1.085   1_655  S
C2161      H2171   1.111       .  S
C2161      H2172   1.110       .  S
C2161      H2173   1.110       .  S
C2163      H2174   1.110       .  S
C2163      H2175   1.108       .  S
C2163      H2176   1.111       .  S
C2177      C2178   1.403       .  A
C2177      C2182   1.407       .  A
C2177      H2187   1.084       .  S
C2178      C2183   1.485       .  S
C2178      C2179   1.411       .  A
C2179      C2184   1.507       .  S
C2179      C2180   1.402       .  A
C2180      C2181   1.403       .  A
C2180      H2185   1.083       .  S
C2181      C2182   1.416       .  A
C2182      C2186   1.508       .  S
C2183      C2188   1.410       .  A
C2183      C2192   1.401       .  A
C2184      H2200   1.110       .  S
C2184      H2201   1.110       .  S
C2184      H2202   1.111       .  S
C2186      H2197   1.110       .  S
C2186      H2198   1.111       .  S
C2186      H2199   1.108       .  S
C2188      C2193   1.505       .  S
C2188      C2189   1.408       .  A
C2189      C2190   1.406       .  A
C2189      H2194   1.084       .  S
C2190      C2191   1.418       .  A
C2191      C2195   1.508       .  S
C2191      C2192   1.403       .  A
C2192      H2196   1.085       .  S
C2193      H2203   1.111       .  S
C2193      H2204   1.110       .  S
C2193      H2205   1.110       .  S
C2195      H2206   1.107       .  S
C2195      H2207   1.111       .  S
C2195      H2208   1.110       .  S
C2209      C2210   1.393       .  A
C2209      C2214   1.403       .  A
C2209      H2219   1.084       .  S
C2210      C2215   1.476       .  S
C2210      C2211   1.405       .  A
C2211      C2216   1.508       .  S
C2211      C2212   1.401       .  A
C2212      C2213   1.415       .  A
C2212      H2217   1.076       .  S
C2213      C2214   1.433       .  A
C2214      C2218   1.515       .  S
C2215      C2220   1.409       .  A
C2215      C2224   1.400       .  A
C2216      H2232   1.110       .  S
C2216      H2233   1.110       .  S
C2216      H2234   1.111       .  S
C2218      H2229   1.107       .  S
C2218      H2230   1.111       .  S
C2218      H2231   1.105       .  S
C2220      C2225   1.507       .  S
C2220      C2221   1.400       .  A
C2221      C2222   1.406       .  A
C2221      H2226   1.084       .  S
C2222      C2223   1.417       .  A
C2223      C2227   1.507       .  S
C2223      C2224   1.404       .  A
C2224      H2228   1.084       .  S
C2225      H2235   1.111       .  S
C2225      H2236   1.110       .  S
C2225      H2237   1.110       .  S
C2227      H2238   1.110       .  S
C2227      H2239   1.110       .  S
C2227      H2240   1.111       .  S
C2241      C2242   1.402       .  A
C2241      C2246   1.404       .  A
C2241      H2251   1.084       .  S
C2242      C2247   1.479       .  S
C2242      C2243   1.411       .  A
C2243      C2248   1.507       .  S
C2243      C2244   1.401       .  A
C2244      C2245   1.402       .  A
C2244      H2249   1.084       .  S
C2245      C2246   1.413       .  A
C2246      C2250   1.505       .  S
C2247      C2252   1.407       .  A
C2247      C2256   1.402       .  A
C2248      H2264   1.109       .  S
C2248      H2265   1.111       .  S
C2248      H2266   1.111       .  S
C2250      H2261   1.110       .  S
C2250      H2262   1.109       .  S
C2250      H2263   1.110       .  S
C2252      C2257   1.506       .  S
C2252      C2253   1.402       .  A
C2253      C2254   1.406       .  A
C2253      H2258   1.083       .  S
C2254      C2255   1.418       .  A
C2255      C2259   1.509       .  S
C2255      C2256   1.403       .  A
C2256      H2260   1.084       .  S
C2257      H2267   1.111       .  S
C2257      H2268   1.110       .  S
C2257      H2269   1.110       .  S
C2259      H2270   1.107       .  S
C2259      H2271   1.108       .  S
C2259      H2272   1.111       .  S
C2273      C2274   1.402       .  A
C2273      C2278   1.405       .  A
C2273      H2283   1.084       .  S
C2274      C2279   1.478       .  S
C2274      C2275   1.408       .  A
C2275      C2280   1.507       .  S
C2275      C2276   1.399       .  A
C2276      C2277   1.407       .  A
C2276      H2281   1.084       .  S
C2277      C2278   1.416       .  A
C2278      C2282   1.507   1_556  S
C2279      C2284   1.410       .  A
C2279      C2288   1.400       .  A
C2280      H2296   1.110       .  S
C2280      H2297   1.110       .  S
C2280      H2298   1.111       .  S
C2282      H2293   1.111       .  S
C2282      H2294   1.110       .  S
C2282      H2295   1.111       .  S
C2284      C2289   1.507       .  S
C2284      C2285   1.403       .  A
C2285      C2286   1.405       .  A
C2285      H2290   1.084       .  S
C2286      C2287   1.414       .  A
C2287      C2291   1.505       .  S
C2287      C2288   1.401       .  A
C2288      H2292   1.085       .  S
C2289      H2299   1.111       .  S
C2289      H2300   1.110       .  S
C2289      H2301   1.110       .  S
C2291      H2302   1.110       .  S
C2291      H2303   1.106       .  S
C2291      H2304   1.110       .  S
C2305      C2306   1.393       .  A
C2305      C2310   1.401       .  A
C2305      H2315   1.085       .  S
C2306      C2311   1.473       .  S
C2306      C2307   1.405       .  A
C2307      C2312   1.510       .  S
C2307      C2308   1.399       .  A
C2308      C2309   1.413       .  A
C2308      H2313   1.074       .  S
C2309      C2310   1.432       .  A
C2310      C2314   1.513       .  S
C2311      C2316   1.410       .  A
C2311      C2320   1.402   1_556  A
C2312      H2328   1.110       .  S
C2312      H2329   1.111       .  S
C2312      H2330   1.110       .  S
C2314      H2325   1.111       .  S
C2314      H2326   1.110       .  S
C2314      H2327   1.102       .  S
C2316      C2321   1.508       .  S
C2316      C2317   1.395       .  A
C2317      C2318   1.401   1_556  A
C2317      H2322   1.085       .  S
C2318      C2319   1.413       .  A
C2319      C2323   1.507       .  S
C2319      C2320   1.403       .  A
C2320      H2324   1.084       .  S
C2321      H2331   1.111       .  S
C2321      H2332   1.110       .  S
C2321      H2333   1.110       .  S
C2323      H2334   1.110       .  S
C2323      H2335   1.108       .  S
C2323      H2336   1.111       .  S
C2337      C2338   1.400       .  A
C2337      C2342   1.402       .  A
C2337      H2347   1.085       .  S
C2338      C2343   1.485       .  S
C2338      C2339   1.411       .  A
C2339      C2344   1.506       .  S
C2339      C2340   1.407       .  A
C2340      C2341   1.406       .  A
C2340      H2345   1.082       .  S
C2341      C2342   1.420       .  A
C2342      C2346   1.509       .  S
C2343      C2348   1.411       .  A
C2343      C2352   1.403       .  A
C2344      H2360   1.109       .  S
C2344      H2361   1.111       .  S
C2344      H2362   1.111       .  S
C2346      H2357   1.111       .  S
C2346      H2358   1.110       .  S
C2346      H2359   1.108       .  S
C2348      C2353   1.507       .  S
C2348      C2349   1.404       .  A
C2349      C2350   1.404       .  A
C2349      H2354   1.085       .  S
C2350      C2351   1.413       .  A
C2351      C2355   1.506       .  S
C2351      C2352   1.404       .  A
C2352      H2356   1.084       .  S
C2353      H2363   1.111       .  S
C2353      H2364   1.109       .  S
C2353      H2365   1.110       .  S
C2355      H2366   1.109       .  S
C2355      H2367   1.107       .  S
C2355      H2368   1.110       .  S
C2369      C2370   1.402   1_565  A
C2369      C2374   1.415       .  A
C2369      H2379   1.084       .  S
C2370      C2375   1.501       .  S
C2370      C2371   1.409       .  A
C2371      C2376   1.508       .  S
C2371      C2372   1.407       .  A
C2372      C2373   1.415       .  A
C2372      H2377   1.079       .  S
C2373      C2374   1.432   1_545  A
C2374      C2378   1.510       .  S
C2375      C2380   1.414       .  A
C2375      C2384   1.404   1_545  A
C2376      H2392   1.110       .  S
C2376      H2393   1.109       .  S
C2376      H2394   1.111       .  S
C2378      H2389   1.110       .  S
C2378      H2390   1.111       .  S
C2378      H2391   1.104       .  S
C2380      C2385   1.505       .  S
C2380      C2381   1.412       .  A
C2381      C2382   1.405       .  A
C2381      H2386   1.084       .  S
C2382      C2383   1.421   1_545  A
C2383      C2387   1.507       .  S
C2383      C2384   1.411       .  A
C2384      H2388   1.084       .  S
C2385      H2395   1.111       .  S
C2385      H2396   1.110       .  S
C2385      H2397   1.109       .  S
C2387      H2398   1.110       .  S
C2387      H2399   1.105       .  S
C2387      H2400   1.111       .  S
C2401      C2402   1.401       .  A
C2401      C2406   1.407       .  A
C2401      H2411   1.084   1_545  S
C2402      C2407   1.488       .  S
C2402      C2403   1.412       .  A
C2403      C2408   1.506       .  S
C2403      C2404   1.407       .  A
C2404      C2405   1.407       .  A
C2404      H2409   1.084       .  S
C2405      C2406   1.421       .  A
C2406      C2410   1.509   1_545  S
C2407      C2412   1.412   1_545  A
C2407      C2416   1.400       .  A
C2408      H2424   1.110       .  S
C2408      H2425   1.110       .  S
C2408      H2426   1.111       .  S
C2410      H2421   1.109       .  S
C2410      H2422   1.111       .  S
C2410      H2423   1.111       .  S
C2412      C2417   1.506       .  S
C2412      C2413   1.407       .  A
C2413      C2414   1.405   1_565  A
C2413      H2418   1.084       .  S
C2414      C2415   1.418       .  A
C2415      C2419   1.504       .  S
C2415      C2416   1.407       .  A
C2416      H2420   1.084       .  S
C2417      H2427   1.111       .  S
C2417      H2428   1.110       .  S
C2417      H2429   1.110       .  S
C2419      H2430   1.107       .  S
C2419      H2431   1.108       .  S
C2419      H2432   1.111       .  S
C2433      C2434   1.403       .  A
C2433      C2438   1.410       .  A
C2433      H2443   1.084       .  S
C2434      C2439   1.488       .  S
C2434      C2435   1.408       .  A
C2435      C2440   1.507       .  S
C2435      C2436   1.401       .  A
C2436      C2437   1.408       .  A
C2436      H2441   1.084       .  S
C2437      C2438   1.421       .  A
C2438      C2442   1.505       .  S
C2439      C2444   1.409       .  A
C2439      C2448   1.402       .  A
C2440      H2456   1.110       .  S
C2440      H2457   1.110       .  S
C2440      H2458   1.111       .  S
C2442      H2453   1.110       .  S
C2442      H2454   1.110       .  S
C2442      H2455   1.101       .  S
C2444      C2449   1.506       .  S
C2444      C2445   1.404       .  A
C2445      C2446   1.409       .  A
C2445      H2450   1.083       .  S
C2446      C2447   1.423       .  A
C2447      C2451   1.507       .  S
C2447      C2448   1.410       .  A
C2448      H2452   1.084       .  S
C2449      H2459   1.111       .  S
C2449      H2460   1.110       .  S
C2449      H2461   1.110       .  S
C2451      H2462   1.110       .  S
C2451      H2463   1.110       .  S
C2451      H2464   1.111       .  S
C2465      C2466   1.399       .  A
C2465      C2470   1.400       .  A
C2465      H2475   1.085       .  S
C2466      C2471   1.482       .  S
C2466      C2467   1.413       .  A
C2467      C2472   1.506       .  S
C2467      C2468   1.407       .  A
C2468      C2469   1.403       .  A
C2468      H2473   1.084       .  S
C2469      C2470   1.419       .  A
C2470      C2474   1.509       .  S
C2471      C2476   1.410       .  A
C2471      C2480   1.404       .  A
C2472      H2488   1.110       .  S
C2472      H2489   1.110       .  S
C2472      H2490   1.111       .  S
C2474      H2485   1.111       .  S
C2474      H2486   1.110       .  S
C2474      H2487   1.107       .  S
C2476      C2481   1.508       .  S
C2476      C2477   1.399       .  A
C2477      C2478   1.404       .  A
C2477      H2482   1.084       .  S
C2478      C2479   1.413       .  A
C2479      C2483   1.506       .  S
C2479      C2480   1.408       .  A
C2480      H2484   1.084       .  S
C2481      H2491   1.111       .  S
C2481      H2492   1.110       .  S
C2481      H2493   1.110       .  S
C2483      H2494   1.108       .  S
C2483      H2495   1.110       .  S
C2483      H2496   1.110       .  S
C2497      C2498   1.401       .  A
C2497      C2502   1.407       .  A
C2497      H2507   1.084       .  S
C2498      C2503   1.476       .  S
C2498      C2499   1.408       .  A
C2499      C2504   1.508       .  S
C2499      C2500   1.397       .  A
C2500      C2501   1.406       .  A
C2500      H2505   1.084       .  S
C2501      C2502   1.421       .  A
C2502      C2506   1.508       .  S
C2503      C2508   1.408       .  A
C2503      C2512   1.398       .  A
C2504      H2520   1.110       .  S
C2504      H2521   1.110       .  S
C2504      H2522   1.111       .  S
C2506      H2517   1.109       .  S
C2506      H2518   1.111       .  S
C2506      H2519   1.110       .  S
C2508      C2513   1.507       .  S
C2508      C2509   1.401       .  A
C2509      C2510   1.407       .  A
C2509      H2514   1.084       .  S
C2510      C2511   1.421       .  A
C2511      C2515   1.504       .  S
C2511      C2512   1.402       .  A
C2512      H2516   1.085       .  S
C2513      H2523   1.111       .  S
C2513      H2524   1.110       .  S
C2513      H2525   1.110       .  S
C2515      H2526   1.110       .  S
C2515      H2527   1.096       .  S
C2515      H2528   1.111       .  S
C2529      C2530   1.404       .  A
C2529      C2534   1.416       .  A
C2529      H2539   1.084       .  S
C2530      C2535   1.499       .  S
C2530      C2531   1.407       .  A
C2531      C2536   1.508       .  S
C2531      C2532   1.405       .  A
C2532      C2533   1.416       .  A
C2532      H2537   1.076       .  S
C2533      C2534   1.430       .  A
C2534      C2538   1.508       .  S
C2535      C2540   1.412       .  A
C2535      C2544   1.404       .  A
C2536      H2552   1.110       .  S
C2536      H2553   1.110       .  S
C2536      H2554   1.111       .  S
C2538      H2549   1.111       .  S
C2538      H2550   1.110       .  S
C2538      H2551   1.104       .  S
C2540      C2545   1.506       .  S
C2540      C2541   1.412       .  A
C2541      C2542   1.409       .  A
C2541      H2546   1.084       .  S
C2542      C2543   1.422       .  A
C2543      C2547   1.509       .  S
C2543      C2544   1.411       .  A
C2544      H2548   1.084       .  S
C2545      H2555   1.111   1_655  S
C2545      H2556   1.110       .  S
C2545      H2557   1.110       .  S
C2547      H2558   1.110       .  S
C2547      H2559   1.105       .  S
C2547      H2560   1.111       .  S
C2561      C2562   1.403       .  A
C2561      C2566   1.411       .  A
C2561      H2571   1.084       .  S
C2562      C2567   1.499       .  S
C2562      C2563   1.412       .  A
C2563      C2568   1.506       .  S
C2563      C2564   1.412       .  A
C2564      C2565   1.411       .  A
C2564      H2569   1.083       .  S
C2565      C2566   1.421       .  A
C2566      C2570   1.507       .  S
C2567      C2572   1.415       .  A
C2567      C2576   1.401       .  A
C2568      H2584   1.111       .  S
C2568      H2585   1.109       .  S
C2568      H2586   1.111       .  S
C2570      H2581   1.110       .  S
C2570      H2582   1.111       .  S
C2570      H2583   1.106       .  S
C2572      C2577   1.505       .  S
C2572      C2573   1.415       .  A
C2573      C2574   1.408       .  A
C2573      H2578   1.084       .  S
C2574      C2575   1.423       .  A
C2575      C2579   1.509       .  S
C2575      C2576   1.408       .  A
C2576      H2580   1.084       .  S
C2577      H2587   1.110       .  S
C2577      H2588   1.110       .  S
C2577      H2589   1.110       .  S
C2579      H2590   1.110       .  S
C2579      H2591   1.107       .  S
C2579      H2592   1.111       .  S
C2593      C2594   1.405       .  A
C2593      C2598   1.411       .  A
C2593      H2603   1.084       .  S
C2594      C2599   1.499       .  S
C2594      C2595   1.415       .  A
C2595      C2600   1.505       .  S
C2595      C2596   1.409       .  A
C2596      C2597   1.402       .  A
C2596      H2601   1.084       .  S
C2597      C2598   1.415       .  A
C2598      C2602   1.505       .  S
C2599      C2604   1.415       .  A
C2599      C2608   1.399       .  A
C2600      H2616   1.110       .  S
C2600      H2617   1.110       .  S
C2600      H2618   1.111       .  S
C2602      H2613   1.111       .  S
C2602      H2614   1.109       .  S
C2602      H2615   1.110       .  S
C2604      C2609   1.505       .  S
C2604      C2605   1.414       .  A
C2605      C2606   1.409       .  A
C2605      H2610   1.084       .  S
C2606      C2607   1.424       .  A
C2607      C2611   1.503       .  S
C2607      C2608   1.409       .  A
C2608      H2612   1.084       .  S
C2609      H2619   1.111       .  S
C2609      H2620   1.110       .  S
C2609      H2621   1.110       .  S
C2611      H2622   1.110       .  S
C2611      H2623   1.104       .  S
C2611      H2624   1.111       .  S
C2625      C2626   1.401       .  A
C2625      C2630   1.405       .  A
C2625      H2635   1.085       .  S
C2626      C2631   1.489       .  S
C2626      C2627   1.412       .  A
C2627      C2632   1.506       .  S
C2627      C2628   1.408       .  A
C2628      C2629   1.404       .  A
C2628      H2633   1.084       .  S
C2629      C2630   1.421       .  A
C2630      C2634   1.509       .  S
C2631      C2636   1.415       .  A
C2631      C2640   1.402       .  A
C2632      H2648   1.110       .  S
C2632      H2649   1.108       .  S
C2632      H2650   1.111       .  S
C2634      H2645   1.110       .  S
C2634      H2646   1.110       .  S
C2634      H2647   1.105       .  S
C2636      C2641   1.508       .  S
C2636      C2637   1.407       .  A
C2637      C2638   1.403       .  A
C2637      H2642   1.084       .  S
C2638      C2639   1.416       .  A
C2639      C2643   1.507       .  S
C2639      C2640   1.406       .  A
C2640      H2644   1.084       .  S
C2641      H2651   1.111       .  S
C2641      H2652   1.110       .  S
C2641      H2653   1.108       .  S
C2643      H2654   1.110       .  S
C2643      H2655   1.108       .  S
C2643      H2656   1.110       .  S
C2657      C2658   1.401       .  A
C2657      C2662   1.408       .  A
C2657      H2667   1.084       .  S
C2658      C2663   1.487       .  S
C2658      C2659   1.412       .  A
C2659      C2664   1.507       .  S
C2659      C2660   1.404       .  A
C2660      C2661   1.404       .  A
C2660      H2665   1.084       .  S
C2661      C2662   1.420       .  A
C2662      C2666   1.508       .  S
C2663      C2668   1.410       .  A
C2663      C2672   1.399       .  A
C2664      H2680   1.110       .  S
C2664      H2681   1.110       .  S
C2664      H2682   1.111       .  S
C2666      H2677   1.110       .  S
C2666      H2678   1.110       .  S
C2666      H2679   1.105       .  S
C2668      C2673   1.506       .  S
C2668      C2669   1.404       .  A
C2669      C2670   1.407       .  A
C2669      H2674   1.084       .  S
C2670      C2671   1.422       .  A
C2671      C2675   1.501       .  S
C2671      C2672   1.407       .  A
C2672      H2676   1.085       .  S
C2673      H2683   1.111       .  S
C2673      H2684   1.110       .  S
C2673      H2685   1.110       .  S
C2675      H2686   1.110       .  S
C2675      H2687   1.093       .  S
C2675      H2688   1.110       .  S
C2689      C2690   1.400       .  A
C2689      C2694   1.407       .  A
C2689      H2699   1.084       .  S
C2690      C2695   1.494       .  S
C2690      C2691   1.413       .  A
C2691      C2696   1.505       .  S
C2691      C2692   1.410       .  A
C2692      C2693   1.408       .  A
C2692      H2697   1.084       .  S
C2693      C2694   1.425       .  A
C2694      C2698   1.511       .  S
C2695      C2700   1.411       .  A
C2695      C2704   1.407       .  A
C2696      H2712   1.110       .  S
C2696      H2713   1.110       .  S
C2696      H2714   1.111       .  S
C2698      H2709   1.111       .  S
C2698      H2710   1.109       .  S
C2698      H2711   1.111       .  S
C2700      C2705   1.507       .  S
C2700      C2701   1.404       .  A
C2701      C2702   1.406       .  A
C2701      H2706   1.084       .  S
C2702      C2703   1.413       .  A
C2703      C2707   1.505       .  S
C2703      C2704   1.413       .  A
C2704      H2708   1.084       .  S
C2705      H2715   1.111       .  S
C2705      H2716   1.110       .  S
C2705      H2717   1.110       .  S
C2707      H2718   1.109       .  S
C2707      H2719   1.111       .  S
C2707      H2720   1.111       .  S
C2721      C2722   1.399       .  A
C2721      C2726   1.398       .  A
C2721      H2731   1.085       .  S
C2722      C2727   1.478       .  S
C2722      C2723   1.414       .  A
C2723      C2728   1.507       .  S
C2723      C2724   1.405       .  A
C2724      C2725   1.402       .  A
C2724      H2729   1.084       .  S
C2725      C2726   1.414       .  A
C2726      C2730   1.510       .  S
C2727      C2732   1.405       .  A
C2727      C2736   1.395       .  A
C2728      H2744   1.110       .  S
C2728      H2745   1.108       .  S
C2728      H2746   1.111       .  S
C2730      H2741   1.110       .  S
C2730      H2742   1.108       .  S
C2730      H2743   1.110       .  S
C2732      C2737   1.509       .  S
C2732      C2733   1.405       .  A
C2733      C2734   1.417       .  A
C2733      H2738   1.075       .  S
C2734      C2735   1.431       .  A
C2735      C2739   1.514       .  S
C2735      C2736   1.403       .  A
C2736      H2740   1.084       .  S
C2737      H2747   1.110       .  S
C2737      H2748   1.111       .  S
C2737      H2749   1.108       .  S
C2739      H2750   1.107       .  S
C2739      H2751   1.104       .  S
C2739      H2752   1.111       .  S
C2753      C2754   1.402       .  A
C2753      C2758   1.410       .  A
C2753      H2763   1.084       .  S
C2754      C2759   1.504       .  S
C2754      C2755   1.417       .  A
C2755      C2760   1.505       .  S
C2755      C2756   1.417       .  A
C2756      C2757   1.407       .  A
C2756      H2761   1.084       .  S
C2757      C2758   1.418       .  A
C2758      C2762   1.507       .  S
C2759      C2764   1.411       .  A
C2759      C2768   1.404       .  A
C2760      H2776   1.110       .  S
C2760      H2777   1.110       .  S
C2760      H2778   1.111       .  S
C2762      H2773   1.111       .  S
C2762      H2774   1.110       .  S
C2762      H2775   1.108       .  S
C2764      C2769   1.508       .  S
C2764      C2765   1.409       .  A
C2765      C2766   1.415       .  A
C2765      H2770   1.083       .  S
C2766      C2767   1.427       .  A
C2767      C2771   1.506       .  S
C2767      C2768   1.419       .  A
C2768      H2772   1.084       .  S
C2769      H2779   1.111       .  S
C2769      H2780   1.110       .  S
C2769      H2781   1.110       .  S
C2771      H2782   1.111       .  S
C2771      H2783   1.109       .  S
C2771      H2784   1.111       .  S
C2785      C2786   1.401       .  A
C2785      C2790   1.406       .  A
C2785      H2795   1.085       .  S
C2786      C2791   1.500       .  S
C2786      C2787   1.415       .  A
C2787      C2792   1.504       .  S
C2787      C2788   1.415       .  A
C2788      C2789   1.406       .  A
C2788      H2793   1.084       .  S
C2789      C2790   1.420       .  A
C2790      C2794   1.507       .  S
C2791      C2796   1.411       .  A
C2791      C2800   1.407       .  A
C2792      H2808   1.110       .  S
C2792      H2809   1.110       .  S
C2792      H2810   1.111       .  S
C2794      H2805   1.110       .  S
C2794      H2806   1.111       .  S
C2794      H2807   1.103       .  S
C2796      C2801   1.508       .  S
C2796      C2797   1.406       .  A
C2797      C2798   1.409       .  A
C2797      H2802   1.084       .  S
C2798      C2799   1.420       .  A
C2799      C2803   1.505       .  S
C2799      C2800   1.418       .  A
C2800      H2804   1.084       .  S
C2801      H2811   1.111       .  S
C2801      H2812   1.110       .  S
C2801      H2813   1.109       .  S
C2803      H2814   1.110       .  S
C2803      H2815   1.110       .  S
C2803      H2816   1.111       .  S
C2817      C2818   1.406       .  A
C2817      C2822   1.409       .  A
C2817      H2827   1.084       .  S
C2818      C2823   1.488       .  S
C2818      C2819   1.408       .  A
C2819      C2824   1.507       .  S
C2819      C2820   1.401       .  A
C2820      C2821   1.409       .  A
C2820      H2825   1.083       .  S
C2821      C2822   1.414       .  A
C2822      C2826   1.506       .  S
C2823      C2828   1.410       .  A
C2823      C2832   1.400       .  A
C2824      H2840   1.110       .  S
C2824      H2841   1.111       .  S
C2824      H2842   1.111       .  S
C2826      H2837   1.111       .  S
C2826      H2838   1.110       .  S
C2826      H2839   1.106       .  S
C2828      C2833   1.506       .  S
C2828      C2829   1.407       .  A
C2829      C2830   1.408       .  A
C2829      H2834   1.084       .  S
C2830      C2831   1.423       .  A
C2831      C2835   1.509       .  S
C2831      C2832   1.407       .  A
C2832      H2836   1.084       .  S
C2833      H2843   1.111       .  S
C2833      H2844   1.110       .  S
C2833      H2845   1.111       .  S
C2835      H2846   1.111       .  S
C2835      H2847   1.109       .  S
C2835      H2848   1.109       .  S
C2849      C2850   1.395       .  A
C2849      C2854   1.407       .  A
C2849      H2859   1.084       .  S
C2850      C2855   1.481       .  S
C2850      C2851   1.405   1_455  A
C2851      C2856   1.508       .  S
C2851      C2852   1.404       .  A
C2852      C2853   1.415   1_655  A
C2852      H2857   1.074       .  S
C2853      C2854   1.434       .  A
C2854      C2858   1.514       .  S
C2855      C2860   1.412       .  A
C2855      C2864   1.400       .  A
C2856      H2872   1.110       .  S
C2856      H2873   1.110       .  S
C2856      H2874   1.110       .  S
C2858      H2869   1.111       .  S
C2858      H2870   1.106       .  S
C2858      H2871   1.105       .  S
C2860      C2865   1.505       .  S
C2860      C2861   1.405       .  A
C2861      C2862   1.402       .  A
C2861      H2866   1.084       .  S
C2862      C2863   1.416       .  A
C2863      C2867   1.508   1_455  S
C2863      C2864   1.402       .  A
C2864      H2868   1.084   1_455  S
C2865      H2875   1.111       .  S
C2865      H2876   1.110       .  S
C2865      H2877   1.110       .  S
C2867      H2878   1.110   1_655  S
C2867      H2879   1.106       .  S
C2867      H2880   1.111       .  S
C2881      C2882   1.402   1_655  A
C2881      C2886   1.404       .  A
C2881      H2891   1.085       .  S
C2882      C2887   1.488       .  S
C2882      C2883   1.413       .  A
C2883      C2888   1.506       .  S
C2883      C2884   1.407       .  A
C2884      C2885   1.404       .  A
C2884      H2889   1.084       .  S
C2885      C2886   1.417   1_455  A
C2886      C2890   1.508       .  S
C2887      C2892   1.410   1_455  A
C2887      C2896   1.401       .  A
C2888      H2904   1.110       .  S
C2888      H2905   1.110       .  S
C2888      H2906   1.111       .  S
C2890      H2901   1.110       .  S
C2890      H2902   1.110       .  S
C2890      H2903   1.106       .  S
C2892      C2897   1.507       .  S
C2892      C2893   1.405       .  A
C2893      C2894   1.408   1_655  A
C2893      H2898   1.084       .  S
C2894      C2895   1.420       .  A
C2895      C2899   1.507       .  S
C2895      C2896   1.408       .  A
C2896      H2900   1.084       .  S
C2897      H2907   1.111       .  S
C2897      H2908   1.110       .  S
C2897      H2909   1.111       .  S
C2899      H2910   1.105       .  S
C2899      H2911   1.109       .  S
C2899      H2912   1.111       .  S
C2913      C2914   1.399       .  A
C2913      C2918   1.409       .  A
C2913      H2923   1.084       .  S
C2914      C2919   1.496       .  S
C2914      C2915   1.412       .  A
C2915      C2920   1.508       .  S
C2915      C2916   1.408       .  A
C2916      C2917   1.414       .  A
C2916      H2921   1.078       .  S
C2917      C2918   1.430       .  A
C2918      C2922   1.508       .  S
C2919      C2924   1.412       .  A
C2919      C2928   1.406       .  A
C2920      H2936   1.109       .  S
C2920      H2937   1.111       .  S
C2920      H2938   1.111       .  S
C2922      H2933   1.111       .  S
C2922      H2934   1.110       .  S
C2922      H2935   1.103       .  S
C2924      C2929   1.508       .  S
C2924      C2925   1.404       .  A
C2925      C2926   1.410       .  A
C2925      H2930   1.085       .  S
C2926      C2927   1.418       .  A
C2927      C2931   1.506       .  S
C2927      C2928   1.411       .  A
C2928      H2932   1.084       .  S
C2929      H2939   1.111       .  S
C2929      H2940   1.109       .  S
C2929      H2941   1.110       .  S
C2931      H2942   1.111       .  S
C2931      H2943   1.103       .  S
C2931      H2944   1.110       .  S
C2945      C2946   1.404       .  A
C2945      C2950   1.407       .  A
C2945      H2955   1.084       .  S
C2946      C2951   1.493       .  S
C2946      C2947   1.414       .  A
C2947      C2952   1.507       .  S
C2947      C2948   1.407       .  A
C2948      C2949   1.404       .  A
C2948      H2953   1.084       .  S
C2949      C2950   1.413       .  A
C2950      C2954   1.505       .  S
C2951      C2956   1.411       .  A
C2951      C2960   1.405       .  A
C2952      H2968   1.109       .  S
C2952      H2969   1.111       .  S
C2952      H2970   1.111       .  S
C2954      H2965   1.110       .  S
C2954      H2966   1.110       .  S
C2954      H2967   1.108       .  S
C2956      C2961   1.506       .  S
C2956      C2957   1.405       .  A
C2957      C2958   1.408       .  A
C2957      H2962   1.084       .  S
C2958      C2959   1.417       .  A
C2959      C2963   1.506       .  S
C2959      C2960   1.411       .  A
C2960      H2964   1.084       .  S
C2961      H2971   1.111       .  S
C2961      H2972   1.109       .  S
C2961      H2973   1.110       .  S
C2963      H2974   1.110       .  S
C2963      H2975   1.110       .  S
C2963      H2976   1.111       .  S
C2977      C2978   1.402       .  A
C2977      C2982   1.406       .  A
C2977      H2987   1.084       .  S
C2978      C2983   1.491       .  S
C2978      C2979   1.411       .  A
C2979      C2984   1.506       .  S
C2979      C2980   1.410       .  A
C2980      C2981   1.408       .  A
C2980      H2985   1.084       .  S
C2981      C2982   1.416       .  A
C2982      C2986   1.507       .  S
C2983      C2988   1.412       .  A
C2983      C2992   1.403       .  A
C2984      H3000   1.110       .  S
C2984      H3001   1.110       .  S
C2984      H3002   1.111       .  S
C2986      H2997   1.110       .  S
C2986      H2998   1.110       .  S
C2986      H2999   1.107       .  S
C2988      C2993   1.507       .  S
C2988      C2989   1.407       .  A
C2989      C2990   1.406       .  A
C2989      H2994   1.084       .  S
C2990      C2991   1.418       .  A
C2991      C2995   1.508       .  S
C2991      C2992   1.409       .  A
C2992      H2996   1.084       .  S
C2993      H3003   1.111       .  S
C2993      H3004   1.110       .  S
C2993      H3005   1.110       .  S
C2995      H3006   1.111       .  S
C2995      H3007   1.107       .  S
C2995      H3008   1.110       .  S
C3009      C3010   1.397       .  A
C3009      C3014   1.408       .  A
C3009      H3019   1.085       .  S
C3010      C3015   1.487       .  S
C3010      C3011   1.404       .  A
C3011      C3016   1.508       .  S
C3011      C3012   1.405       .  A
C3012      C3013   1.418       .  A
C3012      H3017   1.072       .  S
C3013      C3014   1.433       .  A
C3014      C3018   1.512       .  S
C3015      C3020   1.412       .  A
C3015      C3024   1.400       .  A
C3016      H3032   1.110       .  S
C3016      H3033   1.110       .  S
C3016      H3034   1.110       .  S
C3018      H3029   1.111       .  S
C3018      H3030   1.110       .  S
C3018      H3031   1.102       .  S
C3020      C3025   1.506       .  S
C3020      C3021   1.407       .  A
C3021      C3022   1.405       .  A
C3021      H3026   1.084       .  S
C3022      C3023   1.418       .  A
C3023      C3027   1.508       .  S
C3023      C3024   1.404       .  A
C3024      H3028   1.084       .  S
C3025      H3035   1.111       .  S
C3025      H3036   1.110       .  S
C3025      H3037   1.110       .  S
C3027      H3038   1.110       .  S
C3027      H3039   1.108       .  S
C3027      H3040   1.110       .  S
C3041      C3042   1.402       .  A
C3041      C3046   1.405       .  A
C3041      H3051   1.085       .  S
C3042      C3047   1.486       .  S
C3042      C3043   1.409       .  A
C3043      C3048   1.506       .  S
C3043      C3044   1.403       .  A
C3044      C3045   1.408       .  A
C3044      H3049   1.084       .  S
C3045      C3046   1.419       .  A
C3046      C3050   1.503       .  S
C3047      C3052   1.411       .  A
C3047      C3056   1.403       .  A
C3048      H3064   1.110       .  S
C3048      H3065   1.110       .  S
C3048      H3066   1.111       .  S
C3050      H3061   1.110       .  S
C3050      H3062   1.111       .  S
C3050      H3063   1.095       .  S
C3052      C3057   1.507       .  S
C3052      C3053   1.404       .  A
C3053      C3054   1.406       .  A
C3053      H3058   1.084       .  S
C3054      C3055   1.417       .  A
C3055      C3059   1.507       .  S
C3055      C3056   1.406       .  A
C3056      H3060   1.084       .  S
C3057      H3067   1.111       .  S
C3057      H3068   1.109       .  S
C3057      H3069   1.111       .  S
C3059      H3070   1.110       .  S
C3059      H3071   1.106       .  S
C3059      H3072   1.110       .  S
C3073      C3074   1.398       .  A
C3073      C3078   1.402       .  A
C3073      H3083   1.085       .  S
C3074      C3079   1.489       .  S
C3074      C3075   1.414       .  A
C3075      C3080   1.505       .  S
C3075      C3076   1.412       .  A
C3076      C3077   1.404       .  A
C3076      H3081   1.084       .  S
C3077      C3078   1.422       .  A
C3078      C3082   1.510       .  S
C3079      C3084   1.410       .  A
C3079      C3088   1.402       .  A
C3080      H3096   1.110       .  S
C3080      H3097   1.109       .  S
C3080      H3098   1.111       .  S
C3082      H3093   1.110       .  S
C3082      H3094   1.111       .  S
C3082      H3095   1.106       .  S
C3084      C3089   1.508       .  S
C3084      C3085   1.404       .  A
C3085      C3086   1.409       .  A
C3085      H3090   1.084       .  S
C3086      C3087   1.424       .  A
C3087      C3091   1.508       .  S
C3087      C3088   1.412       .  A
C3088      H3092   1.084       .  S
C3089      H3099   1.111       .  S
C3089      H3100   1.110       .  S
C3089      H3101   1.109       .  S
C3091      H3102   1.110       .  S
C3091      H3103   1.110       .  S
C3091      H3104   1.111       .  S
C3105      C3106   1.401       .  A
C3105      C3110   1.405       .  A
C3105      H3115   1.084       .  S
C3106      C3111   1.496       .  S
C3106      C3107   1.414       .  A
C3107      C3112   1.505       .  S
C3107      C3108   1.413       .  A
C3108      C3109   1.408       .  A
C3108      H3113   1.084       .  S
C3109      C3110   1.422       .  A
C3110      C3114   1.510       .  S
C3111      C3116   1.412       .  A
C3111      C3120   1.401       .  A
C3112      H3128   1.109       .  S
C3112      H3129   1.111       .  S
C3112      H3130   1.111       .  S
C3114      H3125   1.111       .  S
C3114      H3126   1.110       .  S
C3114      H3127   1.109       .  S
C3116      C3121   1.507       .  S
C3116      C3117   1.408       .  A
C3117      C3118   1.409       .  A
C3117      H3122   1.084       .  S
C3118      C3119   1.425       .  A
C3119      C3123   1.503       .  S
C3119      C3120   1.410       .  A
C3120      H3124   1.085       .  S
C3121      H3131   1.110       .  S
C3121      H3132   1.109       .  S
C3121      H3133   1.111       .  S
C3123      H3134   1.110       .  S
C3123      H3135   1.111       .  S
C3123      H3136   1.092       .  S
C3137      C3138   1.398       .  A
C3137      C3142   1.400       .  A
C3137      H3147   1.085       .  S
C3138      C3143   1.470       .  S
C3138      C3139   1.409       .  A
C3139      C3144   1.508       .  S
C3139      C3140   1.399       .  A
C3140      C3141   1.404       .  A
C3140      H3145   1.083       .  S
C3141      C3142   1.417       .  A
C3142      C3146   1.507       .  S
C3143      C3148   1.406       .  A
C3143      C3152   1.397       .  A
C3144      H3160   1.110       .  S
C3144      H3161   1.109       .  S
C3144      H3162   1.111       .  S
C3146      H3157   1.111       .  S
C3146      H3158   1.110       .  S
C3146      H3159   1.107       .  S
C3148      C3153   1.506       .  S
C3148      C3149   1.400       .  A
C3149      C3150   1.408       .  A
C3149      H3154   1.083       .  S
C3150      C3151   1.421       .  A
C3151      C3155   1.509       .  S
C3151      C3152   1.399       .  A
C3152      H3156   1.085       .  S
C3153      H3163   1.111       .  S
C3153      H3164   1.110       .  S
C3153      H3165   1.109       .  S
C3155      H3166   1.111       .  S
C3155      H3167   1.111       .  S
C3155      H3168   1.109       .  S
C3169      C3170   1.399       .  A
C3169      C3174   1.397       .  A
C3169      H3179   1.085   1_556  S
C3170      C3175   1.475       .  S
C3170      C3171   1.411       .  A
C3171      C3176   1.505       .  S
C3171      C3172   1.406       .  A
C3172      C3173   1.404       .  A
C3172      H3177   1.084       .  S
C3173      C3174   1.412       .  A
C3174      C3178   1.508   1_556  S
C3175      C3180   1.410       .  A
C3175      C3184   1.402       .  A
C3176      H3192   1.110       .  S
C3176      H3193   1.110       .  S
C3176      H3194   1.111       .  S
C3178      H3189   1.110       .  S
C3178      H3190   1.111       .  S
C3178      H3191   1.108       .  S
C3180      C3185   1.506       .  S
C3180      C3181   1.400       .  A
C3181      C3182   1.402       .  A
C3181      H3186   1.084       .  S
C3182      C3183   1.413   1_556  A
C3183      C3187   1.507       .  S
C3183      C3184   1.402   1_554  A
C3184      H3188   1.085   1_556  S
C3185      H3195   1.111       .  S
C3185      H3196   1.110       .  S
C3185      H3197   1.110       .  S
C3187      H3198   1.110       .  S
C3187      H3199   1.108       .  S
C3187      H3200   1.110       .  S
C3201      C3202   1.401       .  A
C3201      C3206   1.398       .  A
C3201      H3211   1.084       .  S
C3202      C3207   1.478       .  S
C3202      C3203   1.413       .  A
C3203      C3208   1.507       .  S
C3203      C3204   1.402       .  A
C3204      C3205   1.400       .  A
C3204      H3209   1.085       .  S
C3205      C3206   1.412       .  A
C3206      C3210   1.508       .  S
C3207      C3212   1.408       .  A
C3207      C3216   1.399       .  A
C3208      H3224   1.109   1_556  S
C3208      H3225   1.110       .  S
C3208      H3226   1.111       .  S
C3210      H3221   1.107       .  S
C3210      H3222   1.110       .  S
C3210      H3223   1.111       .  S
C3212      C3217   1.507       .  S
C3212      C3213   1.403       .  A
C3213      C3214   1.410       .  A
C3213      H3218   1.084       .  S
C3214      C3215   1.420   1_556  A
C3215      C3219   1.508       .  S
C3215      C3216   1.401   1_554  A
C3216      H3220   1.084   1_556  S
C3217      H3227   1.111       .  S
C3217      H3228   1.109       .  S
C3217      H3229   1.111       .  S
C3219      H3230   1.109       .  S
C3219      H3231   1.111       .  S
C3219      H3232   1.111       .  S
C3233      C3234   1.402       .  A
C3233      C3238   1.407       .  A
C3233      H3243   1.084       .  S
C3234      C3239   1.477       .  S
C3234      C3235   1.407       .  A
C3235      C3240   1.508       .  S
C3235      C3236   1.397       .  A
C3236      C3237   1.408       .  A
C3236      H3241   1.084       .  S
C3237      C3238   1.418       .  A
C3238      C3242   1.508       .  S
C3239      C3244   1.405       .  A
C3239      C3248   1.393       .  A
C3240      H3256   1.110       .  S
C3240      H3257   1.109       .  S
C3240      H3258   1.111       .  S
C3242      H3253   1.111       .  S
C3242      H3254   1.111       .  S
C3242      H3255   1.110       .  S
C3244      C3249   1.508       .  S
C3244      C3245   1.404       .  A
C3245      C3246   1.415       .  A
C3245      H3250   1.074       .  S
C3246      C3247   1.433       .  A
C3247      C3251   1.516       .  S
C3247      C3248   1.403       .  A
C3248      H3252   1.084       .  S
C3249      H3259   1.111       .  S
C3249      H3260   1.110       .  S
C3249      H3261   1.109       .  S
C3251      H3262   1.111       .  S
C3251      H3263   1.106       .  S
C3251      H3264   1.105       .  S
C3265      C3266   1.392       .  A
C3265      C3270   1.395       .  A
C3265      H3275   1.086       .  S
C3266      C3271   1.470       .  S
C3266      C3267   1.401       .  A
C3267      C3272   1.506       .  S
C3267      C3268   1.404       .  A
C3268      C3269   1.417       .  A
C3268      H3273   1.075       .  S
C3269      C3270   1.431       .  A
C3270      C3274   1.515       .  S
C3271      C3276   1.408       .  A
C3271      C3280   1.399       .  A
C3272      H3288   1.110       .  S
C3272      H3289   1.110       .  S
C3272      H3290   1.110       .  S
C3274      H3285   1.111       .  S
C3274      H3286   1.111       .  S
C3274      H3287   1.101       .  S
C3276      C3281   1.507       .  S
C3276      C3277   1.397       .  A
C3277      C3278   1.402       .  A
C3277      H3282   1.085       .  S
C3278      C3279   1.417       .  A
C3279      C3283   1.509       .  S
C3279      C3280   1.400       .  A
C3280      H3284   1.085       .  S
C3281      H3291   1.111       .  S
C3281      H3292   1.110       .  S
C3281      H3293   1.110       .  S
C3283      H3294   1.111       .  S
C3283      H3295   1.105       .  S
C3283      H3296   1.110       .  S
C3297      C3298   1.400       .  A
C3297      C3302   1.400       .  A
C3297      H3307   1.085       .  S
C3298      C3303   1.472   1_556  S
C3298      C3299   1.408   1_556  A
C3299      C3304   1.506       .  S
C3299      C3300   1.400       .  A
C3300      C3301   1.403   1_554  A
C3300      H3305   1.085       .  S
C3301      C3302   1.414       .  A
C3302      C3306   1.505       .  S
C3303      C3308   1.408       .  A
C3303      C3312   1.398   1_554  A
C3304      H3320   1.110       .  S
C3304      H3321   1.110       .  S
C3304      H3322   1.111       .  S
C3306      H3317   1.111       .  S
C3306      H3318   1.110       .  S
C3306      H3319   1.102       .  S
C3308      C3313   1.507       .  S
C3308      C3309   1.398       .  A
C3309      C3310   1.406   1_554  A
C3309      H3314   1.084       .  S
C3310      C3311   1.420       .  A
C3311      C3315   1.508       .  S
C3311      C3312   1.403       .  A
C3312      H3316   1.084       .  S
C3313      H3323   1.111       .  S
C3313      H3324   1.110       .  S
C3313      H3325   1.110       .  S
C3315      H3326   1.109       .  S
C3315      H3327   1.110       .  S
C3315      H3328   1.111       .  S
C3329      C3330   1.401       .  A
C3329      C3334   1.400       .  A
C3329      H3339   1.084       .  S
C3330      C3335   1.479       .  S
C3330      C3331   1.412   1_556  A
C3331      C3336   1.506       .  S
C3331      C3332   1.404       .  A
C3332      C3333   1.402   1_554  A
C3332      H3337   1.084       .  S
C3333      C3334   1.412       .  A
C3334      C3338   1.508       .  S
C3335      C3340   1.410       .  A
C3335      C3344   1.399   1_556  A
C3336      H3352   1.110       .  S
C3336      H3353   1.110   1_554  S
C3336      H3354   1.111       .  S
C3338      H3349   1.111       .  S
C3338      H3350   1.109   1_556  S
C3338      H3351   1.108       .  S
C3340      C3345   1.507       .  S
C3340      C3341   1.402       .  A
C3341      C3342   1.406       .  A
C3341      H3346   1.084       .  S
C3342      C3343   1.421   1_556  A
C3343      C3347   1.508       .  S
C3343      C3344   1.403       .  A
C3344      H3348   1.084       .  S
C3345      H3355   1.111       .  S
C3345      H3356   1.110       .  S
C3345      H3357   1.110       .  S
C3347      H3358   1.110       .  S
C3347      H3359   1.110       .  S
C3347      H3360   1.111       .  S
C3361      C3362   1.395       .  A
C3361      C3366   1.405       .  A
C3361      H3371   1.085       .  S
C3362      C3367   1.487       .  S
C3362      C3363   1.408       .  A
C3363      C3368   1.507       .  S
C3363      C3364   1.407       .  A
C3364      C3365   1.414       .  A
C3364      H3369   1.076       .  S
C3365      C3366   1.434       .  A
C3366      C3370   1.512       .  S
C3367      C3372   1.409       .  A
C3367      C3376   1.403       .  A
C3368      H3384   1.111       .  S
C3368      H3385   1.109       .  S
C3368      H3386   1.111       .  S
C3370      H3381   1.110       .  S
C3370      H3382   1.111       .  S
C3370      H3383   1.100       .  S
C3372      C3377   1.507       .  S
C3372      C3373   1.404       .  A
C3373      C3374   1.407       .  A
C3373      H3378   1.085       .  S
C3374      C3375   1.417       .  A
C3375      C3379   1.506       .  S
C3375      C3376   1.408       .  A
C3376      H3380   1.084       .  S
C3377      H3387   1.111       .  S
C3377      H3388   1.110       .  S
C3377      H3389   1.110       .  S
C3379      H3390   1.110       .  S
C3379      H3391   1.106       .  S
C3379      H3392   1.111       .  S
C3393      C3394   1.398       .  A
C3393      C3398   1.403       .  A
C3393      H3403   1.084       .  S
C3394      C3399   1.487       .  S
C3394      C3395   1.414       .  A
C3395      C3400   1.507       .  S
C3395      C3396   1.409       .  A
C3396      C3397   1.405       .  A
C3396      H3401   1.084       .  S
C3397      C3398   1.424       .  A
C3398      C3402   1.512       .  S
C3399      C3404   1.413       .  A
C3399      C3408   1.401       .  A
C3400      H3416   1.110       .  S
C3400      H3417   1.107       .  S
C3400      H3418   1.111       .  S
C3402      H3413   1.108       .  S
C3402      H3414   1.111       .  S
C3402      H3415   1.111       .  S
C3404      C3409   1.508       .  S
C3404      C3405   1.406       .  A
C3405      C3406   1.405       .  A
C3405      H3410   1.083       .  S
C3406      C3407   1.422       .  A
C3407      C3411   1.510       .  S
C3407      C3408   1.406       .  A
C3408      H3412   1.084       .  S
C3409      H3419   1.111       .  S
C3409      H3420   1.110       .  S
C3409      H3421   1.107       .  S
C3411      H3422   1.111       .  S
C3411      H3423   1.110       .  S
C3411      H3424   1.105   1_545  S
C3425      C3426   1.406   1_545  A
C3425      C3430   1.410   1_545  A
C3425      H3435   1.084       .  S
C3426      C3431   1.496       .  S
C3426      C3427   1.412       .  A
C3427      C3432   1.507       .  S
C3427      C3428   1.405       .  A
C3428      C3429   1.410       .  A
C3428      H3433   1.083       .  S
C3429      C3430   1.417       .  A
C3430      C3434   1.504   1_565  S
C3431      C3436   1.414       .  A
C3431      C3440   1.403   1_565  A
C3432      H3448   1.109       .  S
C3432      H3449   1.110       .  S
C3432      H3450   1.111       .  S
C3434      H3445   1.111   1_545  S
C3434      H3446   1.110       .  S
C3434      H3447   1.102       .  S
C3436      C3441   1.507       .  S
C3436      C3437   1.408       .  A
C3437      C3438   1.407       .  A
C3437      H3442   1.084       .  S
C3438      C3439   1.422   1_565  A
C3439      C3443   1.507       .  S
C3439      C3440   1.410       .  A
C3440      H3444   1.084       .  S
C3441      H3451   1.111       .  S
C3441      H3452   1.109       .  S
C3441      H3453   1.110       .  S
C3443      H3454   1.107       .  S
C3443      H3455   1.110       .  S
C3443      H3456   1.111       .  S
C3457      C3458   1.401       .  A
C3457      C3462   1.406       .  A
C3457      H3467   1.085       .  S
C3458      C3463   1.496       .  S
C3458      C3459   1.413   1_545  A
C3459      C3464   1.506       .  S
C3459      C3460   1.413       .  A
C3460      C3461   1.407       .  A
C3460      H3465   1.082       .  S
C3461      C3462   1.419   1_565  A
C3462      C3466   1.507       .  S
C3463      C3468   1.409   1_545  A
C3463      C3472   1.404       .  A
C3464      H3480   1.110   1_565  S
C3464      H3481   1.109       .  S
C3464      H3482   1.111       .  S
C3466      H3477   1.110       .  S
C3466      H3478   1.110       .  S
C3466      H3479   1.105       .  S
C3468      C3473   1.509       .  S
C3468      C3469   1.404       .  A
C3469      C3470   1.411   1_565  A
C3469      H3474   1.081       .  S
C3470      C3471   1.427       .  A
C3471      C3475   1.507       .  S
C3471      C3472   1.416       .  A
C3472      H3476   1.084       .  S
C3473      H3483   1.110       .  S
C3473      H3484   1.110       .  S
C3473      H3485   1.109       .  S
C3475      H3486   1.111       .  S
C3475      H3487   1.100       .  S
C3475      H3488   1.111       .  S
C3489      C3490   1.405       .  A
C3489      C3494   1.415       .  A
C3489      H3499   1.084       .  S
C3490      C3495   1.491       .  S
C3490      C3491   1.409       .  A
C3491      C3496   1.509       .  S
C3491      C3492   1.402       .  A
C3492      C3493   1.411       .  A
C3492      H3497   1.084       .  S
C3493      C3494   1.421       .  A
C3494      C3498   1.505       .  S
C3495      C3500   1.413       .  A
C3495      C3504   1.406       .  A
C3496      H3512   1.110       .  S
C3496      H3513   1.109       .  S
C3496      H3514   1.111       .  S
C3498      H3509   1.111       .  S
C3498      H3510   1.110       .  S
C3498      H3511   1.110       .  S
C3500      C3505   1.506       .  S
C3500      C3501   1.405       .  A
C3501      C3502   1.402       .  A
C3501      H3506   1.084       .  S
C3502      C3503   1.411       .  A
C3503      C3507   1.506       .  S
C3503      C3504   1.410       .  A
C3504      H3508   1.084       .  S
C3505      H3515   1.111       .  S
C3505      H3516   1.110       .  S
C3505      H3517   1.109       .  S
C3507      H3518   1.110       .  S
C3507      H3519   1.110       .  S
C3507      H3520   1.111       .  S
C3521      C3522   1.396       .  A
C3521      C3526   1.402       .  A
C3521      H3531   1.085       .  S
C3522      C3527   1.485       .  S
C3522      C3523   1.409       .  A
C3523      C3528   1.509       .  S
C3523      C3524   1.405       .  A
C3524      C3525   1.414       .  A
C3524      H3529   1.076       .  S
C3525      C3526   1.431       .  A
C3526      C3530   1.512       .  S
C3527      C3532   1.409       .  A
C3527      C3536   1.404       .  A
C3528      H3544   1.109       .  S
C3528      H3545   1.111       .  S
C3528      H3546   1.111       .  S
C3530      H3541   1.110       .  S
C3530      H3542   1.111       .  S
C3530      H3543   1.103       .  S
C3532      C3537   1.509       .  S
C3532      C3533   1.398       .  A
C3533      C3534   1.409       .  A
C3533      H3538   1.084       .  S
C3534      C3535   1.419       .  A
C3535      C3539   1.506   1_554  S
C3535      C3536   1.409       .  A
C3536      H3540   1.084       .  S
C3537      H3547   1.111       .  S
C3537      H3548   1.109       .  S
C3537      H3549   1.111       .  S
C3539      H3550   1.111       .  S
C3539      H3551   1.110       .  S
C3539      H3552   1.110       .  S
C3553      C3554   1.400       .  A
C3553      C3558   1.402       .  A
C3553      H3563   1.084       .  S
C3554      C3559   1.486       .  S
C3554      C3555   1.414       .  A
C3555      C3560   1.507       .  S
C3555      C3556   1.404       .  A
C3556      C3557   1.403       .  A
C3556      H3561   1.084       .  S
C3557      C3558   1.420       .  A
C3558      C3562   1.509       .  S
C3559      C3564   1.411       .  A
C3559      C3568   1.402       .  A
C3560      H3576   1.109       .  S
C3560      H3577   1.110       .  S
C3560      H3578   1.111       .  S
C3562      H3573   1.111       .  S
C3562      H3574   1.110       .  S
C3562      H3575   1.106       .  S
C3564      C3569   1.509       .  S
C3564      C3565   1.401       .  A
C3565      C3566   1.409       .  A
C3565      H3570   1.084       .  S
C3566      C3567   1.419       .  A
C3567      C3571   1.507       .  S
C3567      C3568   1.407       .  A
C3568      H3572   1.084       .  S
C3569      H3579   1.111       .  S
C3569      H3580   1.109       .  S
C3569      H3581   1.110       .  S
C3571      H3582   1.110       .  S
C3571      H3583   1.110   1_554  S
C3571      H3584   1.110       .  S
C3585      C3586   1.398   1_556  A
C3585      C3590   1.398       .  A
C3585      H3595   1.085       .  S
C3586      C3591   1.475       .  S
C3586      C3587   1.410       .  A
C3587      C3592   1.506       .  S
C3587      C3588   1.406       .  A
C3588      C3589   1.404       .  A
C3588      H3593   1.084       .  S
C3589      C3590   1.415   1_554  A
C3590      C3594   1.509       .  S
C3591      C3596   1.409       .  A
C3591      C3600   1.403   1_554  A
C3592      H3608   1.110       .  S
C3592      H3609   1.110       .  S
C3592      H3610   1.110       .  S
C3594      H3605   1.111       .  S
C3594      H3606   1.110       .  S
C3594      H3607   1.108       .  S
C3596      C3601   1.507       .  S
C3596      C3597   1.398       .  A
C3597      C3598   1.401   1_554  A
C3597      H3602   1.084       .  S
C3598      C3599   1.411       .  A
C3599      C3603   1.506       .  S
C3599      C3600   1.403       .  A
C3600      H3604   1.084       .  S
C3601      H3611   1.111       .  S
C3601      H3612   1.110       .  S
C3601      H3613   1.110       .  S
C3603      H3614   1.110       .  S
C3603      H3615   1.108       .  S
C3603      H3616   1.110       .  S
C3617      C3618   1.401   1_556  A
C3617      C3622   1.402       .  A
C3617      H3627   1.085       .  S
C3618      C3623   1.475       .  S
C3618      C3619   1.408       .  A
C3619      C3624   1.507       .  S
C3619      C3620   1.400       .  A
C3620      C3621   1.406       .  A
C3620      H3625   1.084       .  S
C3621      C3622   1.416   1_554  A
C3622      C3626   1.509       .  S
C3623      C3628   1.411       .  A
C3623      C3632   1.397       .  A
C3624      H3640   1.110       .  S
C3624      H3641   1.110       .  S
C3624      H3642   1.111       .  S
C3626      H3637   1.111       .  S
C3626      H3638   1.110       .  S
C3626      H3639   1.106       .  S
C3628      C3633   1.506       .  S
C3628      C3629   1.405   1_554  A
C3629      C3630   1.403       .  A
C3629      H3634   1.083       .  S
C3630      C3631   1.415   1_556  A
C3631      C3635   1.504       .  S
C3631      C3632   1.397       .  A
C3632      H3636   1.085       .  S
C3633      H3643   1.111   1_554  S
C3633      H3644   1.110   1_554  S
C3633      H3645   1.110       .  S
C3635      H3646   1.110   1_554  S
C3635      H3647   1.103       .  S
C3635      H3648   1.110       .  S
C3649      C3650   1.401       .  A
C3649      C3654   1.402       .  A
C3649      H3659   1.085       .  S
C3650      C3655   1.483       .  S
C3650      C3651   1.411       .  A
C3651      C3656   1.506       .  S
C3651      C3652   1.406       .  A
C3652      C3653   1.404       .  A
C3652      H3657   1.084       .  S
C3653      C3654   1.416       .  A
C3654      C3658   1.507       .  S
C3655      C3660   1.406       .  A
C3655      C3664   1.400       .  A
C3656      H3672   1.110       .  S
C3656      H3673   1.110       .  S
C3656      H3674   1.111       .  S
C3658      H3669   1.111       .  S
C3658      H3670   1.110       .  S
C3658      H3671   1.108       .  S
C3660      C3665   1.506       .  S
C3660      C3661   1.403       .  A
C3661      C3662   1.410       .  A
C3661      H3666   1.081       .  S
C3662      C3663   1.422       .  A
C3663      C3667   1.507       .  S
C3663      C3664   1.406       .  A
C3664      H3668   1.084       .  S
C3665      H3675   1.111       .  S
C3665      H3676   1.110       .  S
C3665      H3677   1.110       .  S
C3667      H3678   1.111       .  S
C3667      H3679   1.107       .  S
C3667      H3680   1.107       .  S
C3681      C3682   1.402       .  A
C3681      C3686   1.405       .  A
C3681      H3691   1.084       .  S
C3682      C3687   1.485       .  S
C3682      C3683   1.413       .  A
C3683      C3688   1.507       .  S
C3683      C3684   1.407       .  A
C3684      C3685   1.402       .  A
C3684      H3689   1.084       .  S
C3685      C3686   1.413       .  A
C3686      C3690   1.506       .  S
C3687      C3692   1.414       .  A
C3687      C3696   1.402       .  A
C3688      H3704   1.110       .  S
C3688      H3705   1.108       .  S
C3688      H3706   1.111       .  S
C3690      H3701   1.110       .  S
C3690      H3702   1.111       .  S
C3690      H3703   1.110       .  S
C3692      C3697   1.507       .  S
C3692      C3693   1.405       .  A
C3693      C3694   1.401       .  A
C3693      H3698   1.085       .  S
C3694      C3695   1.416       .  A
C3695      C3699   1.508       .  S
C3695      C3696   1.404       .  A
C3696      H3700   1.084       .  S
C3697      H3707   1.111       .  S
C3697      H3708   1.110       .  S
C3697      H3709   1.107       .  S
C3699      H3710   1.110       .  S
C3699      H3711   1.108   1_565  S
C3699      H3712   1.111       .  S
C3713      C3714   1.404       .  A
C3713      C3718   1.410       .  A
C3713      H3723   1.084       .  S
C3714      C3719   1.490       .  S
C3714      C3715   1.412       .  A
C3715      C3720   1.507       .  S
C3715      C3716   1.403       .  A
C3716      C3717   1.403       .  A
C3716      H3721   1.084       .  S
C3717      C3718   1.419       .  A
C3718      C3722   1.508       .  S
C3719      C3724   1.412       .  A
C3719      C3728   1.400       .  A
C3720      H3736   1.110       .  S
C3720      H3737   1.110       .  S
C3720      H3738   1.111       .  S
C3722      H3733   1.110       .  S
C3722      H3734   1.110       .  S
C3722      H3735   1.106       .  S
C3724      C3729   1.507       .  S
C3724      C3725   1.408       .  A
C3725      C3726   1.407       .  A
C3725      H3730   1.084       .  S
C3726      C3727   1.417       .  A
C3727      C3731   1.503       .  S
C3727      C3728   1.408       .  A
C3728      H3732   1.084       .  S
C3729      H3739   1.111       .  S
C3729      H3740   1.110       .  S
C3729      H3741   1.110       .  S
C3731      H3742   1.111       .  S
C3731      H3743   1.108       .  S
C3731      H3744   1.109       .  S
C3745      C3746   1.403       .  A
C3745      C3750   1.413       .  A
C3745      H3755   1.084       .  S
C3746      C3751   1.492       .  S
C3746      C3747   1.410       .  A
C3747      C3752   1.507       .  S
C3747      C3748   1.405       .  A
C3748      C3749   1.409       .  A
C3748      H3753   1.081       .  S
C3749      C3750   1.423       .  A
C3750      C3754   1.506       .  S
C3751      C3756   1.413       .  A
C3751      C3760   1.401       .  A
C3752      H3768   1.110       .  S
C3752      H3769   1.110       .  S
C3752      H3770   1.111       .  S
C3754      H3765   1.111       .  S
C3754      H3766   1.110       .  S
C3754      H3767   1.110       .  S
C3756      C3761   1.505       .  S
C3756      C3757   1.412       .  A
C3757      C3758   1.404       .  A
C3757      H3762   1.082       .  S
C3758      C3759   1.418       .  A
C3759      C3763   1.507       .  S
C3759      C3760   1.404       .  A
C3760      H3764   1.085       .  S
C3761      H3771   1.111       .  S
C3761      H3772   1.110       .  S
C3761      H3773   1.110       .  S
C3763      H3774   1.110       .  S
C3763      H3775   1.105       .  S
C3763      H3776   1.110       .  S
C3777      C3778   1.400       .  A
C3777      C3782   1.404       .  A
C3777      H3787   1.085       .  S
C3778      C3783   1.485       .  S
C3778      C3779   1.409       .  A
C3779      C3784   1.505       .  S
C3779      C3780   1.407       .  A
C3780      C3781   1.408       .  A
C3780      H3785   1.084       .  S
C3781      C3782   1.419       .  A
C3782      C3786   1.504       .  S
C3783      C3788   1.412       .  A
C3783      C3792   1.400       .  A
C3784      H3800   1.111       .  S
C3784      H3801   1.110       .  S
C3784      H3802   1.111       .  S
C3786      H3797   1.110       .  S
C3786      H3798   1.110       .  S
C3786      H3799   1.097       .  S
C3788      C3793   1.506       .  S
C3788      C3789   1.406       .  A
C3789      C3790   1.404       .  A
C3789      H3794   1.084       .  S
C3790      C3791   1.420       .  A
C3791      C3795   1.508       .  S
C3791      C3792   1.405       .  A
C3792      H3796   1.084       .  S
C3793      H3803   1.111       .  S
C3793      H3804   1.110       .  S
C3793      H3805   1.110       .  S
C3795      H3806   1.110       .  S
C3795      H3807   1.108       .  S
C3795      H3808   1.111       .  S
C3809      C3810   1.400       .  A
C3809      C3814   1.400       .  A
C3809      H3819   1.085       .  S
C3810      C3815   1.487       .  S
C3810      C3811   1.415       .  A
C3811      C3816   1.507       .  S
C3811      C3812   1.408       .  A
C3812      C3813   1.404       .  A
C3812      H3817   1.084       .  S
C3813      C3814   1.420       .  A
C3814      C3818   1.510       .  S
C3815      C3820   1.411       .  A
C3815      C3824   1.406       .  A
C3816      H3832   1.109       .  S
C3816      H3833   1.110       .  S
C3816      H3834   1.111       .  S
C3818      H3829   1.111       .  S
C3818      H3830   1.110       .  S
C3818      H3831   1.107       .  S
C3820      C3825   1.509       .  S
C3820      C3821   1.399       .  A
C3821      C3822   1.406       .  A
C3821      H3826   1.084       .  S
C3822      C3823   1.412       .  A
C3823      C3827   1.506       .  S
C3823      C3824   1.408       .  A
C3824      H3828   1.084       .  S
C3825      H3835   1.111       .  S
C3825      H3836   1.108       .  S
C3825      H3837   1.111       .  S
C3827      H3838   1.108       .  S
C3827      H3839   1.111       .  S
C3827      H3840   1.111       .  S
C3841      C3842   1.403       .  A
C3841      C3846   1.409       .  A
C3841      H3851   1.084       .  S
C3842      C3847   1.491       .  S
C3842      C3843   1.410       .  A
C3843      C3848   1.506       .  S
C3843      C3844   1.405       .  A
C3844      C3845   1.408       .  A
C3844      H3849   1.084       .  S
C3845      C3846   1.417       .  A
C3846      C3850   1.505       .  S
C3847      C3852   1.408       .  A
C3847      C3856   1.406       .  A
C3848      H3864   1.110       .  S
C3848      H3865   1.110       .  S
C3848      H3866   1.111       .  S
C3850      H3861   1.108       .  S
C3850      H3862   1.111       .  S
C3850      H3863   1.108       .  S
C3852      C3857   1.510       .  S
C3852      C3853   1.398       .  A
C3853      C3854   1.411       .  A
C3853      H3858   1.082       .  S
C3854      C3855   1.423       .  A
C3855      C3859   1.506       .  S
C3855      C3856   1.418       .  A
C3856      H3860   1.084       .  S
C3857      H3867   1.111       .  S
C3857      H3868   1.110       .  S
C3857      H3869   1.110       .  S
C3859      H3870   1.111       .  S
C3859      H3871   1.110       .  S
C3859      H3872   1.110       .  S
C3873      C3874   1.401       .  A
C3873      C3878   1.411       .  A
C3873      H3883   1.084       .  S
C3874      C3879   1.485       .  S
C3874      C3875   1.406       .  A
C3875      C3880   1.510       .  S
C3875      C3876   1.398       .  A
C3876      C3877   1.414       .  A
C3876      H3881   1.076       .  S
C3877      C3878   1.428       .  A
C3878      C3882   1.508       .  S
C3879      C3884   1.409       .  A
C3879      C3888   1.401       .  A
C3880      H3896   1.109       .  S
C3880      H3897   1.110       .  S
C3880      H3898   1.111       .  S
C3882      H3893   1.103       .  S
C3882      H3894   1.110       .  S
C3882      H3895   1.111       .  S
C3884      C3889   1.506       .  S
C3884      C3885   1.405       .  A
C3885      C3886   1.408       .  A
C3885      H3890   1.084       .  S
C3886      C3887   1.419       .  A
C3887      C3891   1.506       .  S
C3887      C3888   1.405       .  A
C3888      H3892   1.084       .  S
C3889      H3899   1.111       .  S
C3889      H3900   1.110       .  S
C3889      H3901   1.110       .  S
C3891      H3902   1.110       .  S
C3891      H3903   1.110       .  S
C3891      H3904   1.111       .  S
C3905      C3906   1.403       .  A
C3905      C3910   1.408       .  A
C3905      H3915   1.084       .  S
C3906      C3911   1.489       .  S
C3906      C3907   1.411       .  A
C3907      C3912   1.506       .  S
C3907      C3908   1.407       .  A
C3908      C3909   1.406       .  A
C3908      H3913   1.084       .  S
C3909      C3910   1.418       .  A
C3910      C3914   1.507       .  S
C3911      C3916   1.412       .  A
C3911      C3920   1.401       .  A
C3912      H3928   1.110       .  S
C3912      H3929   1.110       .  S
C3912      H3930   1.111       .  S
C3914      H3925   1.110       .  S
C3914      H3926   1.111       .  S
C3914      H3927   1.108       .  S
C3916      C3921   1.506       .  S
C3916      C3917   1.407       .  A
C3917      C3918   1.405       .  A
C3917      H3922   1.084       .  S
C3918      C3919   1.421       .  A
C3919      C3923   1.509       .  S
C3919      C3920   1.406       .  A
C3920      H3924   1.084       .  S
C3921      H3931   1.111       .  S
C3921      H3932   1.110       .  S
C3921      H3933   1.110       .  S
C3923      H3934   1.110       .  S
C3923      H3935   1.107       .  S
C3923      H3936   1.111       .  S
C3937      C3938   1.398       .  A
C3937      C3942   1.405       .  A
C3937      H3947   1.084       .  S
C3938      C3943   1.493       .  S
C3938      C3939   1.414       .  A
C3939      C3944   1.507       .  S
C3939      C3940   1.413       .  A
C3940      C3941   1.409       .  A
C3940      H3945   1.084       .  S
C3941      C3942   1.424       .  A
C3942      C3946   1.510       .  S
C3943      C3948   1.409       .  A
C3943      C3952   1.401       .  A
C3944      H3960   1.111       .  S
C3944      H3961   1.108       .  S
C3944      H3962   1.110       .  S
C3946      H3957   1.107       .  S
C3946      H3958   1.111       .  S
C3946      H3959   1.111       .  S
C3948      C3953   1.510       .  S
C3948      C3949   1.405       .  A
C3949      C3950   1.416       .  A
C3949      H3954   1.080       .  S
C3950      C3951   1.428       .  A
C3951      C3955   1.508       .  S
C3951      C3952   1.411       .  A
C3952      H3956   1.084       .  S
C3953      H3963   1.111       .  S
C3953      H3964   1.110       .  S
C3953      H3965   1.108       .  S
C3955      H3966   1.111       .  S
C3955      H3967   1.103       .  S
C3955      H3968   1.110       .  S
C3969      C3970   1.402       .  A
C3969      C3974   1.409       .  A
C3969      H3979   1.084       .  S
C3970      C3975   1.493       .  S
C3970      C3971   1.415       .  A
C3971      C3976   1.506       .  S
C3971      C3972   1.409       .  A
C3972      C3973   1.403       .  A
C3972      H3977   1.084       .  S
C3973      C3974   1.419       .  A
C3974      C3978   1.509       .  S
C3975      C3980   1.413       .  A
C3975      C3984   1.404       .  A
C3976      H3992   1.110       .  S
C3976      H3993   1.109       .  S
C3976      H3994   1.111       .  S
C3978      H3989   1.111       .  S
C3978      H3990   1.110       .  S
C3978      H3991   1.108       .  S
C3980      C3985   1.507       .  S
C3980      C3981   1.408       .  A
C3981      C3982   1.406       .  A
C3981      H3986   1.084       .  S
C3982      C3983   1.416       .  A
C3983      C3987   1.506       .  S
C3983      C3984   1.410       .  A
C3984      H3988   1.084       .  S
C3985      H3995   1.111       .  S
C3985      H3996   1.110       .  S
C3985      H3997   1.108       .  S
C3987      H3998   1.111       .  S
C3987      H3999   1.110       .  S
C3987      H4000   1.110       .  S
C4001      C4002   1.403       .  A
C4001      C4006   1.404       .  A
C4001      H4011   1.084       .  S
C4002      C4007   1.477       .  S
C4002      C4003   1.409       .  A
C4003      C4008   1.507       .  S
C4003      C4004   1.399       .  A
C4004      C4005   1.403       .  A
C4004      H4009   1.085       .  S
C4005      C4006   1.414       .  A
C4006      C4010   1.508       .  S
C4007      C4012   1.408       .  A
C4007      C4016   1.401       .  A
C4008      H4024   1.109       .  S
C4008      H4025   1.110       .  S
C4008      H4026   1.111       .  S
C4010      H4021   1.110       .  S
C4010      H4022   1.111       .  S
C4010      H4023   1.108       .  S
C4012      C4017   1.506       .  S
C4012      C4013   1.401       .  A
C4013      C4014   1.405       .  A
C4013      H4018   1.083       .  S
C4014      C4015   1.417       .  A
C4015      C4019   1.509       .  S
C4015      C4016   1.400       .  A
C4016      H4020   1.085       .  S
C4017      H4027   1.111       .  S
C4017      H4028   1.110       .  S
C4017      H4029   1.111       .  S
C4019      H4030   1.110       .  S
C4019      H4031   1.106       .  S
C4019      H4032   1.111       .  S
C4033      C4034   1.401       .  A
C4033      C4038   1.405       .  A
C4033      H4043   1.085       .  S
C4034      C4039   1.488       .  S
C4034      C4035   1.409       .  A
C4035      C4040   1.506       .  S
C4035      C4036   1.406       .  A
C4036      C4037   1.410       .  A
C4036      H4041   1.084       .  S
C4037      C4038   1.419       .  A
C4038      C4042   1.503       .  S
C4039      C4044   1.410       .  A
C4039      C4048   1.404       .  A
C4040      H4056   1.109       .  S
C4040      H4057   1.111       .  S
C4040      H4058   1.111       .  S
C4042      H4053   1.110       .  S
C4042      H4054   1.111       .  S
C4042      H4055   1.096       .  S
C4044      C4049   1.506       .  S
C4044      C4045   1.404       .  A
C4045      C4046   1.406       .  A
C4045      H4050   1.084       .  S
C4046      C4047   1.416       .  A
C4047      C4051   1.507       .  S
C4047      C4048   1.407       .  A
C4048      H4052   1.084       .  S
C4049      H4059   1.111       .  S
C4049      H4060   1.109       .  S
C4049      H4061   1.110       .  S
C4051      H4062   1.111       .  S
C4051      H4063   1.106       .  S
C4051      H4064   1.110       .  S
C4065      C4066   1.404       .  A
C4065      C4070   1.407       .  A
C4065      H4075   1.084       .  S
C4066      C4071   1.482       .  S
C4066      C4067   1.410       .  A
C4067      C4072   1.507       .  S
C4067      C4068   1.400       .  A
C4068      C4069   1.403       .  A
C4068      H4073   1.084       .  S
C4069      C4070   1.413       .  A
C4070      C4074   1.506       .  S
C4071      C4076   1.406       .  A
C4071      C4080   1.401       .  A
C4072      H4088   1.110       .  S
C4072      H4089   1.110       .  S
C4072      H4090   1.111       .  S
C4074      H4085   1.110       .  S
C4074      H4086   1.110       .  S
C4074      H4087   1.109       .  S
C4076      C4081   1.507       .  S
C4076      C4077   1.402       .  A
C4077      C4078   1.412       .  A
C4077      H4082   1.083       .  S
C4078      C4079   1.422       .  A
C4079      C4083   1.508       .  S
C4079      C4080   1.407       .  A
C4080      H4084   1.084       .  S
C4081      H4091   1.111       .  S
C4081      H4092   1.110       .  S
C4081      H4093   1.110       .  S
C4083      H4094   1.111       .  S
C4083      H4095   1.109       .  S
C4083      H4096   1.110       .  S
C4097      C4098   1.401       .  A
C4097      C4102   1.400       .  A
C4097      H4107   1.085       .  S
C4098      C4103   1.472       .  S
C4098      C4099   1.410       .  A
C4099      C4104   1.507       .  S
C4099      C4100   1.400       .  A
C4100      C4101   1.401       .  A
C4100      H4105   1.085       .  S
C4101      C4102   1.412       .  A
C4102      C4106   1.508       .  S
C4103      C4108   1.408       .  A
C4103      C4112   1.398       .  A
C4104      H4120   1.110       .  S
C4104      H4121   1.109       .  S
C4104      H4122   1.111       .  S
C4106      H4117   1.110       .  S
C4106      H4118   1.110       .  S
C4106      H4119   1.108       .  S
C4108      C4113   1.506       .  S
C4108      C4109   1.402       .  A
C4109      C4110   1.405       .  A
C4109      H4114   1.082       .  S
C4110      C4111   1.416       .  A
C4111      C4115   1.506       .  S
C4111      C4112   1.400       .  A
C4112      H4116   1.084       .  S
C4113      H4123   1.111       .  S
C4113      H4124   1.110       .  S
C4113      H4125   1.109       .  S
C4115      H4126   1.111       .  S
C4115      H4127   1.110       .  S
C4115      H4128   1.106       .  S
C4129      C4130   1.404   1_545  A
C4129      C4134   1.411       .  A
C4129      H4139   1.084       .  S
C4130      C4135   1.504       .  S
C4130      C4131   1.415       .  A
C4131      C4136   1.505       .  S
C4131      C4132   1.413       .  A
C4132      C4133   1.409       .  A
C4132      H4137   1.084       .  S
C4133      C4134   1.420   1_565  A
C4134      C4138   1.505       .  S
C4135      C4140   1.414       .  A
C4135      C4144   1.407       .  A
C4136      H4152   1.109       .  S
C4136      H4153   1.110       .  S
C4136      H4154   1.111       .  S
C4138      H4149   1.106       .  S
C4138      H4150   1.111       .  S
C4138      H4151   1.103       .  S
C4140      C4145   1.507       .  S
C4140      C4141   1.410       .  A
C4141      C4142   1.407       .  A
C4141      H4146   1.084       .  S
C4142      C4143   1.420       .  A
C4143      C4147   1.507   1_565  S
C4143      C4144   1.414       .  A
C4144      H4148   1.084   1_565  S
C4145      H4155   1.110       .  S
C4145      H4156   1.109       .  S
C4145      H4157   1.111       .  S
C4147      H4158   1.111       .  S
C4147      H4159   1.106   1_655  S
C4147      H4160   1.110   1_645  S
C4161      C4162   1.404   1_545  A
C4161      C4166   1.408       .  A
C4161      H4171   1.084       .  S
C4162      C4167   1.487       .  S
C4162      C4163   1.410       .  A
C4163      C4168   1.507       .  S
C4163      C4164   1.404       .  A
C4164      C4165   1.407       .  A
C4164      H4169   1.084       .  S
C4165      C4166   1.417   1_565  A
C4166      C4170   1.507       .  S
C4167      C4172   1.407       .  A
C4167      C4176   1.395   1_565  A
C4168      H4184   1.110       .  S
C4168      H4185   1.109       .  S
C4168      H4186   1.111       .  S
C4170      H4181   1.111       .  S
C4170      H4182   1.110       .  S
C4170      H4183   1.106       .  S
C4172      C4177   1.509       .  S
C4172      C4173   1.408       .  A
C4173      C4174   1.419       .  A
C4173      H4178   1.075       .  S
C4174      C4175   1.432   1_565  A
C4175      C4179   1.509       .  S
C4175      C4176   1.406       .  A
C4176      H4180   1.085       .  S
C4177      H4187   1.111       .  S
C4177      H4188   1.110       .  S
C4177      H4189   1.109       .  S
C4179      H4190   1.111       .  S
C4179      H4191   1.098       .  S
C4179      H4192   1.110       .  S
C4193      C4194   1.398       .  A
C4193      C4198   1.404       .  A
C4193      H4203   1.085       .  S
C4194      C4199   1.495       .  S
C4194      C4195   1.413       .  A
C4195      C4200   1.504       .  S
C4195      C4196   1.414       .  A
C4196      C4197   1.408       .  A
C4196      H4201   1.083       .  S
C4197      C4198   1.425       .  A
C4198      C4202   1.510       .  S
C4199      C4204   1.414       .  A
C4199      C4208   1.404       .  A
C4200      H4216   1.110       .  S
C4200      H4217   1.111       .  S
C4200      H4218   1.111       .  S
C4202      H4213   1.106       .  S
C4202      H4214   1.111       .  S
C4202      H4215   1.105       .  S
C4204      C4209   1.507       .  S
C4204      C4205   1.407       .  A
C4205      C4206   1.403       .  A
C4205      H4210   1.084       .  S
C4206      C4207   1.420       .  A
C4207      C4211   1.509       .  S
C4207      C4208   1.410       .  A
C4208      H4212   1.084       .  S
C4209      H4219   1.111       .  S
C4209      H4220   1.109       .  S
C4209      H4221   1.110       .  S
C4211      H4222   1.110       .  S
C4211      H4223   1.108       .  S
C4211      H4224   1.110       .  S
C4225      C4226   1.401       .  A
C4225      C4230   1.404       .  A
C4225      H4235   1.085       .  S
C4226      C4231   1.495       .  S
C4226      C4227   1.415       .  A
C4227      C4232   1.505       .  S
C4227      C4228   1.413       .  A
C4228      C4229   1.405       .  A
C4228      H4233   1.084       .  S
C4229      C4230   1.419       .  A
C4230      C4234   1.507       .  S
C4231      C4236   1.412       .  A
C4231      C4240   1.405       .  A
C4232      H4248   1.110       .  S
C4232      H4249   1.108       .  S
C4232      H4250   1.111       .  S
C4234      H4245   1.110       .  S
C4234      H4246   1.111       .  S
C4234      H4247   1.106       .  S
C4236      C4241   1.508       .  S
C4236      C4237   1.408       .  A
C4237      C4238   1.409       .  A
C4237      H4242   1.084       .  S
C4238      C4239   1.419       .  A
C4239      C4243   1.506       .  S
C4239      C4240   1.414       .  A
C4240      H4244   1.084       .  S
C4241      H4251   1.111       .  S
C4241      H4252   1.110       .  S
C4241      H4253   1.108       .  S
C4243      H4254   1.111       .  S
C4243      H4255   1.111       .  S
C4243      H4256   1.109       .  S
C4257      C4258   1.403       .  A
C4257      C4262   1.408       .  A
C4257      H4267   1.084       .  S
C4258      C4263   1.495       .  S
C4258      C4259   1.414       .  A
C4259      C4264   1.506       .  S
C4259      C4260   1.410       .  A
C4260      C4261   1.405       .  A
C4260      H4265   1.084       .  S
C4261      C4262   1.418       .  A
C4262      C4266   1.509       .  S
C4263      C4268   1.412       .  A
C4263      C4272   1.401       .  A
C4264      H4280   1.110       .  S
C4264      H4281   1.111       .  S
C4264      H4282   1.111       .  S
C4266      H4277   1.111       .  S
C4266      H4278   1.110       .  S
C4266      H4279   1.108       .  S
C4268      C4273   1.505       .  S
C4268      C4269   1.410       .  A
C4269      C4270   1.408       .  A
C4269      H4274   1.084       .  S
C4270      C4271   1.422       .  A
C4271      C4275   1.508       .  S
C4271      C4272   1.408       .  A
C4272      H4276   1.084       .  S
C4273      H4283   1.111       .  S
C4273      H4284   1.110       .  S
C4273      H4285   1.110       .  S
C4275      H4286   1.107       .  S
C4275      H4287   1.109       .  S
C4275      H4288   1.110       .  S
C4289      C4290   1.401       .  A
C4289      C4294   1.409       .  A
C4289      H4299   1.084       .  S
C4290      C4295   1.483       .  S
C4290      C4291   1.406       .  A
C4291      C4296   1.507       .  S
C4291      C4292   1.401       .  A
C4292      C4293   1.412       .  A
C4292      H4297   1.083       .  S
C4293      C4294   1.424       .  A
C4294      C4298   1.507       .  S
C4295      C4300   1.413       .  A
C4295      C4304   1.398       .  A
C4296      H4312   1.110       .  S
C4296      H4313   1.110       .  S
C4296      H4314   1.111       .  S
C4298      H4309   1.111       .  S
C4298      H4310   1.110       .  S
C4298      H4311   1.110       .  S
C4300      C4305   1.506       .  S
C4300      C4301   1.408       .  A
C4301      C4302   1.403       .  A
C4301      H4306   1.084       .  S
C4302      C4303   1.418       .  A
C4303      C4307   1.508       .  S
C4303      C4304   1.399       .  A
C4304      H4308   1.085       .  S
C4305      H4315   1.111       .  S
C4305      H4316   1.110       .  S
C4305      H4317   1.111       .  S
C4307      H4318   1.110       .  S
C4307      H4319   1.106       .  S
C4307      H4320   1.110       .  S
C4321      C4322   1.403       .  A
C4321      C4326   1.415       .  A
C4321      H4331   1.084       .  S
C4322      C4327   1.499       .  S
C4322      C4323   1.412       .  A
C4323      C4328   1.508       .  S
C4323      C4324   1.408       .  A
C4324      C4325   1.412       .  A
C4324      H4329   1.083       .  S
C4325      C4326   1.426       .  A
C4326      C4330   1.506       .  S
C4327      C4332   1.416       .  A
C4327      C4336   1.404       .  A
C4328      H4344   1.110       .  S
C4328      H4345   1.110       .  S
C4328      H4346   1.111       .  S
C4330      H4341   1.111       .  S
C4330      H4342   1.110       .  S
C4330      H4343   1.110       .  S
C4332      C4337   1.505       .  S
C4332      C4333   1.412       .  A
C4333      C4334   1.404       .  A
C4333      H4338   1.084       .  S
C4334      C4335   1.415       .  A
C4335      C4339   1.507       .  S
C4335      C4336   1.409       .  A
C4336      H4340   1.084       .  S
C4337      H4347   1.111       .  S
C4337      H4348   1.110       .  S
C4337      H4349   1.110       .  S
C4339      H4350   1.109       .  S
C4339      H4351   1.110       .  S
C4339      H4352   1.111       .  S
C4353      C4354   1.397       .  A
C4353      C4358   1.401       .  A
C4353      H4363   1.084       .  S
C4354      C4359   1.476       .  S
C4354      C4355   1.411       .  A
C4355      C4360   1.506       .  S
C4355      C4356   1.402       .  A
C4356      C4357   1.403       .  A
C4356      H4361   1.084       .  S
C4357      C4358   1.420       .  A
C4358      C4362   1.509       .  S
C4359      C4364   1.405       .  A
C4359      C4368   1.394       .  A
C4360      H4376   1.110       .  S
C4360      H4377   1.110       .  S
C4360      H4378   1.111       .  S
C4362      H4373   1.108       .  S
C4362      H4374   1.111       .  S
C4362      H4375   1.111       .  S
C4364      C4369   1.509       .  S
C4364      C4365   1.401       .  A
C4365      C4366   1.414       .  A
C4365      H4370   1.075       .  S
C4366      C4367   1.430       .  A
C4367      C4371   1.508       .  S
C4367      C4368   1.402       .  A
C4368      H4372   1.085       .  S
C4369      H4379   1.111       .  S
C4369      H4380   1.111       .  S
C4369      H4381   1.109       .  S
C4371      H4382   1.111       .  S
C4371      H4383   1.099       .  S
C4371      H4384   1.110       .  S
C4385      C4386   1.410       .  A
C4385      C4390   1.419       .  A
C4385      H4395   1.084       .  S
C4386      C4391   1.502       .  S
C4386      C4387   1.410       .  A
C4387      C4392   1.509       .  S
C4387      C4388   1.404       .  A
C4388      C4389   1.413       .  A
C4388      H4393   1.083       .  S
C4389      C4390   1.420       .  A
C4390      C4394   1.505       .  S
C4391      C4396   1.413       .  A
C4391      C4400   1.407       .  A
C4392      H4408   1.109       .  S
C4392      H4409   1.111       .  S
C4392      H4410   1.111       .  S
C4394      H4405   1.111       .  S
C4394      H4406   1.109       .  S
C4394      H4407   1.110       .  S
C4396      C4401   1.506       .  S
C4396      C4397   1.407       .  A
C4397      C4398   1.407       .  A
C4397      H4402   1.084       .  S
C4398      C4399   1.421       .  A
C4399      C4403   1.508       .  S
C4399      C4400   1.414       .  A
C4400      H4404   1.084       .  S
C4401      H4411   1.111       .  S
C4401      H4412   1.109       .  S
C4401      H4413   1.111       .  S
C4403      H4414   1.105   1_655  S
C4403      H4415   1.108       .  S
C4403      H4416   1.111       .  S
