geometry optimzed in LAMMPS
_audit_creation_date              2020-11-30 
_audit_creation_method            'lammps2cif' 
_symmetry_space_group_name_H-M    'P1' 
_symmetry_Int_Tables_number       1 
_symmetry_cell_setting            triclinic 
loop_ 
_symmetry_equiv_pos_as_xyz 
  x,y,z 
_cell_length_a                    37.94643383 
_cell_length_b                    38.101665367842664 
_cell_length_c                    37.750939460833266 
_cell_angle_alpha                 89.40916486968044 
_cell_angle_beta                  89.37442942297528 
_cell_angle_gamma                 90.49866154912122 
loop_ 
_atom_site_label 
_atom_site_type_symbol 
_atom_site_fract_x 
_atom_site_fract_y 
_atom_site_fract_z 
_atom_site_charge 
N1          N  0.50542449  0.00390628  0.43861461    -0.34300
N2          N  0.50299655  0.05438105  0.49685359    -0.54800
N3          N  0.50954663  0.99858034  0.54937400    -0.34300
N4          N  0.50792628  0.94814790  0.49099615    -0.54800
C5          C  0.49423888  0.03318986  0.42162857     0.29300
C6          C  0.49618938  0.97581704  0.41873128     0.29300
C7          C  0.49888676  0.02546689  0.57017792     0.29300
C8          C  0.50163742  0.96810135  0.56675607     0.29300
C9          C  0.50899018  0.07604817  0.46862681     0.37900
C10         C  0.51049289  0.07312492  0.52627375     0.37900
C11         C  0.51605510  0.93055484  0.46100658     0.37900
C12         C  0.51946819  0.92828616  0.51836629     0.37900
C13         C  0.47783283  0.02364681  0.39045731    -0.19500
C14         C  0.47899824  0.98746155  0.38867421    -0.19500
C15         C  0.48418119  0.01193240  0.60125314    -0.19500
C16         C  0.48574777  0.97572600  0.59902505    -0.19500
C17         C  0.52093277  0.10841899  0.48022810    -0.20600
C18         C  0.52182996  0.10658771  0.51657720    -0.20600
C19         C  0.53346866  0.89982050  0.46928934    -0.20600
C20         C  0.53591487  0.89851800  0.50556976    -0.20600
C21         C  0.50025639  0.06818472  0.43294569    -0.15900
C22         C  0.50464911  0.94032640  0.42670096    -0.15900
C23         C  0.51035860  0.93403865  0.55441888    -0.15900
C24         C  0.50346785  0.06169188  0.56171749    -0.15900
H25         H  0.46622460  0.04093710  0.37097519     0.17000
H26         H  0.46850087  0.97160627  0.36757302     0.17000
H27         H  0.47333299  0.02657324  0.62316880     0.17000
H28         H  0.47635936  0.95719850  0.61896850     0.17000
H29         H  0.52761117  0.13129088  0.46421369     0.15200
H30         H  0.52930985  0.12775941  0.53393043     0.15200
H31         H  0.54278550  0.88008491  0.45110802     0.15200
H32         H  0.54726462  0.87736533  0.52089242     0.15200
H33         H  0.52146865  0.00350320  0.46063949     0.28500
H34         H  0.52418823  0.00086290  0.52637794     0.28500
N35         N  0.94005934  0.49770811  0.49832567    -0.34300
N36         N  0.99449676  0.55114526  0.49770249    -0.54800
N37         N  0.04583169  0.49500124  0.49618436    -0.34300
N38         N  0.99196296  0.44113334  0.49357139    -0.54800
C39         C  0.92172701  0.52693392  0.48953074     0.29300
C40         C  0.92060538  0.46955369  0.48846149     0.29300
C41         C  0.06590711  0.52363908  0.48837680     0.29300
C42         C  0.06446601  0.46645288  0.48646044     0.29300
C43         C  0.96639944  0.57079197  0.50702982     0.37900
C44         C  0.02373639  0.56925418  0.50703148     0.37900
C45         C  0.96280500  0.42216993  0.50220302     0.37900
C46         C  0.01999233  0.42080348  0.50120488     0.37900
C47         C  0.89075962  0.51709285  0.47298344    -0.19500
C48         C  0.88989638  0.48095514  0.47264367    -0.19500
C49         C  0.09720231  0.51318242  0.47247703    -0.19500
C50         C  0.09634744  0.47707795  0.47142009    -0.19500
C51         C  0.97789318  0.60155213  0.52268643    -0.20600
C52         C  0.01426200  0.60062090  0.52256738    -0.20600
C53         C  0.97229068  0.38935609  0.51493100    -0.20600
C54         C  0.00863602  0.38850204  0.51431778    -0.20600
C55         C  0.93094991  0.56188674  0.49897809    -0.15900
C56         C  0.92797886  0.43402353  0.49705509    -0.15900
C57         C  0.05545669  0.43130700  0.49549800    -0.15900
C58         C  0.05860495  0.55828118  0.49956922    -0.15900
H59         H  0.87040888  0.53413379  0.46297115     0.17000
H60         H  0.86873149  0.46482907  0.46251251     0.17000
H61         H  0.11901434  0.52978787  0.46387206     0.17000
H62         H  0.11733668  0.46044226  0.46192363     0.17000
H63         H  0.96181513  0.62258119  0.53284042     0.15200
H64         H  0.03168766  0.62077973  0.53252609     0.15200
H65         H  0.95489693  0.36831777  0.52381004     0.15200
H66         H  0.02477357  0.36672093  0.52267618     0.15200
H67         H  0.96220262  0.49676783  0.51448269     0.28500
H68         H  0.02336679  0.49470621  0.51237306     0.28500
N69         N  0.50348138  0.50579386  0.94661566    -0.34300
N70         N  0.44611140  0.50583770  0.99791801    -0.54800
N71         N  0.49888001  0.50501329  0.05393912    -0.34300
N72         N  0.55578464  0.50821629  0.00236132    -0.54800
C73         C  0.47548190  0.51392386  0.92623523     0.29300
C74         C  0.53289905  0.51628470  0.92865145     0.29300
C75         C  0.46911159  0.51451331  0.07141003     0.29300
C76         C  0.52668637  0.51546941  0.07366629     0.29300
C77         C  0.42819583  0.49648790  0.96850249     0.37900
C78         C  0.42573060  0.49669394  0.02632267     0.37900
C79         C  0.57643640  0.50026147  0.97419133     0.37900
C80         C  0.57400533  0.49952074  0.03175489     0.37900
C81         C  0.48718100  0.53053874  0.89538084    -0.19500
C82         C  0.52339698  0.53220474  0.89698883    -0.19500
C83         C  0.47816107  0.53212344  0.10203688    -0.19500
C84         C  0.51446048  0.53270241  0.10346565    -0.19500
C85         C  0.39621336  0.48126859  0.97825031    -0.20600
C86         C  0.39469334  0.48128670  0.01482369    -0.20600
C87         C  0.60788364  0.48607996  0.98571052    -0.20600
C88         C  0.60629659  0.48550146  0.02219315    -0.20600
C89         C  0.44021087  0.50308074  0.93320387    -0.15900
C90         C  0.56789835  0.50825712  0.93854723    -0.15900
C91         C  0.56244902  0.50688797  0.06674517    -0.15900
C92         C  0.43431467  0.50427035  0.06212500    -0.15900
H93         H  0.47129597  0.53969369  0.87356900     0.17000
H94         H  0.54079716  0.54291478  0.87662410     0.17000
H95         H  0.46040614  0.54270135  0.12177144     0.17000
H96         H  0.53005987  0.54387302  0.12444071     0.17000
H97         H  0.37610233  0.47117068  0.96089367     0.15200
H98         H  0.37313397  0.47117999  0.03102895     0.15200
H99         H  0.62978025  0.47732107  0.96956992     0.15200
H100        H  0.62673996  0.47619909  0.03960794     0.15200
H101        H  0.50280319  0.48961634  0.96900413     0.28500
H102        H  0.50001371  0.48825079  0.03233644     0.28500
N103        N  0.02282001  0.50485836  0.05191333    -0.34300
N104        N  0.02011371  0.44911554  0.99907781    -0.54800
N105        N  0.02283560  0.49758857  0.93986987    -0.34300
N106        N  0.02419790  0.55318747  0.99251884    -0.54800
C107        C  0.01076713  0.47726471  0.07140811     0.29300
C108        C  0.01160015  0.53457296  0.06760078     0.29300
C109        C  0.00968405  0.46837880  0.92442753     0.29300
C110        C  0.01242957  0.52574514  0.92061702     0.29300
C111        C  0.02792196  0.43125220  0.02906258     0.37900
C112        C  0.02661464  0.42719741  0.97182037     0.37900
C113        C  0.03102918  0.57499882  0.01972105     0.37900
C114        C  0.03269662  0.57100710  0.96242657     0.37900
C115        C  0.99226072  0.48951014  0.10058436    -0.19500
C116        C  0.99270201  0.52577354  0.09812758    -0.19500
C117        C  0.99101353  0.47807645  0.89454938    -0.19500
C118        C  0.99282786  0.51436061  0.89209705    -0.19500
C119        C  0.04067729  0.39830954  0.02074053    -0.20600
C120        C  0.03990460  0.39576168  0.98446480    -0.20600
C121        C  0.04518269  0.60635775  0.00693004    -0.20600
C122        C  0.04626646  0.60382658  0.97064174    -0.20600
C123        C  0.01674062  0.44157363  0.06327581    -0.15900
C124        C  0.01862391  0.56910226  0.05482825    -0.15900
C125        C  0.02094940  0.56112981  0.92843818    -0.15900
C126        C  0.01528655  0.43350703  0.93670890    -0.15900
H127        H  0.97935988  0.47397475  0.12116821     0.17000
H128        H  0.98017304  0.54353102  0.11645945     0.17000
H129        H  0.97726466  0.46088803  0.87660367     0.17000
H130        H  0.98079079  0.53049926  0.87189557     0.17000
H131        H  0.04783156  0.37757987  0.03905062     0.15200
H132        H  0.04660603  0.37278117  0.96926890     0.15200
H133        H  0.05204943  0.62935680  0.02206199     0.15200
H134        H  0.05390542  0.62461128  0.95227758     0.15200
H135        H  0.04016971  0.50336293  0.02998238     0.28500
H136        H  0.04034618  0.49820902  0.96096611     0.28500
N137        N  0.54289769  0.00392326  0.99609149    -0.34300
N138        N  0.49140096  0.94745370  0.99108168    -0.54800
N139        N  0.43850041  0.00122445  0.99729922    -0.34300
N140        N  0.49024702  0.05755130  0.99989945    -0.54800
C141        C  0.56248082  0.97680964  0.98441911     0.29300
C142        C  0.56190587  0.03362494  0.99006161     0.29300
C143        C  0.41968881  0.97280168  0.98708189     0.29300
C144        C  0.41918215  0.02993128  0.98953009     0.29300
C145        C  0.52051263  0.92870306  0.99848619     0.37900
C146        C  0.46332991  0.92726372  0.00057841     0.37900
C147        C  0.51824237  0.07650282  0.01077269     0.37900
C148        C  0.46117616  0.07535636  0.00946434     0.37900
C149        C  0.59385336  0.98950450  0.96983519    -0.19500
C150        C  0.59346870  0.02538923  0.97333348    -0.19500
C151        C  0.38854421  0.98361525  0.97167673    -0.19500
C152        C  0.38823797  0.01968072  0.97318847    -0.19500
C153        C  0.51102283  0.89612290  0.01229966    -0.20600
C154        C  0.47464904  0.89527122  0.01382278    -0.20600
C155        C  0.50701094  0.10678818  0.02730597    -0.20600
C156        C  0.47063948  0.10613034  0.02634430    -0.20600
C157        C  0.55524439  0.94102966  0.99216320    -0.15900
C158        C  0.55346421  0.06704296  0.00373112    -0.15900
C159        C  0.42661432  0.06438389  0.00128206    -0.15900
C160        C  0.42793684  0.93756976  0.99583197    -0.15900
H161        H  0.61548605  0.97429962  0.95935493     0.17000
H162        H  0.61468263  0.04324193  0.96585973     0.17000
H163        H  0.36760629  0.96712805  0.96165973     0.17000
H164        H  0.36697773  0.03638678  0.96459245     0.17000
H165        H  0.52843706  0.87539150  0.02075932     0.15200
H166        H  0.45848311  0.87369397  0.02368019     0.15200
H167        H  0.52324457  0.12723284  0.03856363     0.15200
H168        H  0.45322553  0.12593750  0.03680097     0.15200
H169        H  0.52078312  0.00174684  0.01260576     0.28500
H170        H  0.46040641  0.00067346  0.01373504     0.28500
O171        O  0.81299756  0.73321803  0.81365283    -0.76100
C172        C  0.72701717  0.80926537  0.83220480     0.84900
O173        O  0.70921838  0.68636812  0.75714961    -0.77300
O174        O  0.69240318  0.80942300  0.72110966    -0.78700
O175        O  0.82138084  0.81393465  0.71699164    -0.78500
O176        O  0.84388744  0.74053308  0.76354071    -0.77200
Zn177      Zn  0.76213445  0.74398240  0.80096057     1.55700
O178        O  0.77277506  0.84394522  0.73015603    -0.78600
Cd179      Cd  0.80703781  0.76184032  0.72925924     1.59700
Cd180      Cd  0.72843802  0.72688310  0.72402211     1.59600
O181        O  0.80917471  0.73201404  0.68348868    -0.78600
O182        O  0.75878876  0.75981119  0.75182194    -1.89100
Cd183      Cd  0.73741307  0.80779072  0.75128572     1.59900
O184        O  0.75708702  0.70488844  0.68213144    -0.78500
O185        O  0.72358248  0.82404938  0.80200402    -0.77200
C186        C  0.71551496  0.67918706  0.78962913     0.85400
C187        C  0.84191869  0.73154358  0.79615910     0.85000
O188        O  0.74134853  0.77922938  0.83524271    -0.76100
C189        C  0.80447415  0.84277737  0.71871538     0.85800
O190        O  0.73489160  0.69913849  0.80814684    -0.76200
C191        C  0.78789086  0.71049282  0.66908690     0.86000
C192        C  0.67633150  0.78627660  0.70317190     0.86300
O193        O  0.68676280  0.75451566  0.70161458    -0.78600
O194        O  0.17430796  0.73089373  0.75689681    -0.76100
C195        C  0.21839126  0.82444435  0.70732580     0.84900
O196        O  0.26191359  0.69031673  0.67413106    -0.77300
O197        O  0.32975590  0.79472392  0.71841043    -0.78700
O198        O  0.27523456  0.75718314  0.83031944    -0.78500
O199        O  0.20118639  0.71342277  0.80586348    -0.77200
Zn200      Zn  0.21269261  0.74565497  0.72205183     1.55700
O201        O  0.29060855  0.80580415  0.80032184    -0.78600
Cd202      Cd  0.25457336  0.72267236  0.79290221     1.59700
Cd203      Cd  0.29037768  0.71376762  0.71436929     1.59600
O204        O  0.28217049  0.67535845  0.79584071    -0.78600
O205        O  0.25929199  0.74387799  0.74404734    -1.89100
Cd206      Cd  0.28185765  0.79198734  0.74683134     1.59900
O207        O  0.31155294  0.67347150  0.74437510    -0.78500
O208        O  0.24841415  0.82774877  0.72203961    -0.77200
C209        C  0.23011821  0.69322865  0.66391413     0.85400
C210        C  0.17295607  0.71859790  0.78843040     0.85000
O211        O  0.20232941  0.79501820  0.70564488    -0.76100
C212        C  0.28735517  0.78862933  0.82958607     0.85800
O213        O  0.20871204  0.71358165  0.67962493    -0.76200
C214        C  0.30421572  0.66070511  0.77496714     0.86000
C215        C  0.34429531  0.77348271  0.69684964     0.86300
O216        O  0.33149162  0.74286937  0.69180823    -0.78600
O217        O  0.76071627  0.17245253  0.74431906    -0.76100
C218        C  0.71152432  0.20814987  0.84120385     0.84900
O219        O  0.67147476  0.25525800  0.70722721    -0.77300
O220        O  0.71653207  0.31954647  0.81083988    -0.78700
O221        O  0.82715624  0.27733839  0.77120226    -0.78500
O222        O  0.80881828  0.20263588  0.72829168    -0.77200
Zn223      Zn  0.72398383  0.20686154  0.76078209     1.55700
O224        O  0.79648580  0.28549909  0.82123931    -0.78600
Cd225      Cd  0.79209996  0.25416475  0.73642735     1.59700
Cd226      Cd  0.71252218  0.28485325  0.72832510     1.59600
O227        O  0.79424807  0.28145129  0.68797154    -0.78600
O228        O  0.74329914  0.25436112  0.75803059    -1.89100
Cd229      Cd  0.74505357  0.27394306  0.80705063     1.59900
O230        O  0.74104675  0.30572030  0.68575276    -0.78500
O231        O  0.72400873  0.23912915  0.84390911    -0.77200
C232        C  0.66277563  0.22296415  0.71097497     0.85400
C233        C  0.79244170  0.17347669  0.73276870     0.85000
O234        O  0.70999574  0.19298456  0.81129515    -0.76100
C235        C  0.82533269  0.28656341  0.80359579     0.85800
O236        O  0.68052506  0.20207574  0.73030249    -0.76200
C237        C  0.77179809  0.30108967  0.67268239     0.86000
C238        C  0.69735798  0.33682430  0.78951546     0.86300
O239        O  0.69247769  0.32649017  0.75781669    -0.78600
O240        O  0.22778777  0.25795420  0.67138018    -0.76100
C241        C  0.32797977  0.21165311  0.71022075     0.84900
O242        O  0.19586184  0.16968527  0.75640806    -0.77300
O243        O  0.29466411  0.21952210  0.82300532    -0.78700
O244        O  0.25988490  0.32855175  0.77516400    -0.78500
O245        O  0.21561735  0.30614990  0.70205958    -0.77200
Zn246      Zn  0.24863687  0.22438609  0.70693068     1.55700
O247        O  0.30889447  0.29795402  0.78403223    -0.78600
Cd248      Cd  0.22546649  0.29181785  0.75363646     1.59700
Cd249      Cd  0.21384438  0.21272199  0.78460936     1.59600
O250        O  0.17733579  0.29412576  0.77954581    -0.78600
O251        O  0.24535720  0.24341818  0.75454523    -1.89100
Cd252      Cd  0.29349924  0.24605895  0.77524934     1.59900
O253        O  0.17043127  0.24044345  0.80295200    -0.78500
O254        O  0.32979803  0.22223040  0.74208972    -0.77200
C255        C  0.20252252  0.16040491  0.72469488     0.85400
C256        C  0.21667502  0.28937913  0.67307011     0.85000
O257        O  0.29926986  0.21283493  0.69298364    -0.76100
C258        C  0.29219494  0.32691747  0.78405990     0.85800
O259        O  0.22177419  0.17914103  0.70405194    -0.76200
C260        C  0.15973480  0.27174220  0.79786694     0.86000
C261        C  0.27250799  0.19970611  0.83925497     0.86300
O262        O  0.24156851  0.19398123  0.82762453    -0.78600
O263        O  0.73494620  0.77697204  0.15872218    -0.76100
C264        C  0.83435467  0.72910350  0.19381935     0.84900
O265        O  0.69977386  0.68869857  0.24322996    -0.77300
O266        O  0.80420241  0.73022095  0.30679333    -0.78700
O267        O  0.77076629  0.84406067  0.26501141    -0.78500
O268        O  0.72568175  0.82576154  0.18923076    -0.77200
Zn269      Zn  0.75418585  0.74142323  0.19372671     1.55700
O270        O  0.81851267  0.81226679  0.27592128    -0.78600
Cd271      Cd  0.73603491  0.80927842  0.24098181     1.59700
Cd272      Cd  0.72160529  0.72953819  0.27297933     1.59600
O273        O  0.68900301  0.81203524  0.26817038    -0.78600
O274        O  0.75354288  0.75983800  0.24192217    -1.89100
Cd275      Cd  0.80254524  0.76106608  0.26159579     1.59900
O276        O  0.67929754  0.75911898  0.29232404    -0.78500
O277        O  0.83815233  0.74000714  0.22542636    -0.77200
C278        C  0.70405764  0.67985062  0.21090958     0.85400
C279        C  0.72539466  0.80894007  0.16014902     0.85000
O280        O  0.80431012  0.72884218  0.17889217    -0.76100
C281        C  0.80209720  0.84146303  0.27663341     0.85800
O282        O  0.72396260  0.69764397  0.18992630    -0.76200
C283        C  0.67004588  0.79085887  0.28661631     0.86000
C284        C  0.78237623  0.71152852  0.32485840     0.86300
O285        O  0.75019702  0.70804465  0.31549570    -0.78600
O286        O  0.26901484  0.81537561  0.19614328    -0.76100
C287        C  0.19695759  0.82844676  0.28474538     0.84900
O288        O  0.31736116  0.74578605  0.29477102    -0.77300
O289        O  0.19075945  0.71998166  0.31601046    -0.78700
O290        O  0.18578222  0.72347285  0.18438411    -0.78500
O291        O  0.25958600  0.76800009  0.16329400    -0.77200
Zn292      Zn  0.26122041  0.79733410  0.24717397     1.55700
O293        O  0.15601821  0.73217379  0.23446256    -0.78600
Cd294      Cd  0.23800785  0.73211801  0.19883133     1.59700
Cd295      Cd  0.27317054  0.71755196  0.27668456     1.59600
O296        O  0.26418671  0.68542130  0.19296545    -0.78600
O297        O  0.24197545  0.74962132  0.24842959    -1.89100
Cd298      Cd  0.19343161  0.74973929  0.26998694     1.59900
O299        O  0.28998217  0.67551217  0.24492206    -0.78500
O300        O  0.17945513  0.79979851  0.28469503    -0.77200
C301        C  0.32678563  0.77784725  0.28993887     0.85400
C302        C  0.26864100  0.80009158  0.16618757     0.85000
O303        O  0.22832383  0.83044213  0.27238143    -0.76100
C304        C  0.15677719  0.72401011  0.20176810     0.85800
O305        O  0.30778429  0.79907633  0.27235284    -0.76200
C306        C  0.28338458  0.66669015  0.21299796     0.86000
C307        C  0.21325546  0.70143865  0.33232618     0.86300
O308        O  0.24479632  0.69756716  0.32074405    -0.78600
O309        O  0.71976004  0.18886385  0.19663755    -0.76100
C310        C  0.79542431  0.17113375  0.27969925     0.84900
O311        O  0.67300941  0.25116197  0.29620818    -0.77300
O312        O  0.79719632  0.27875368  0.31674701    -0.78700
O313        O  0.79899434  0.28405699  0.18420147    -0.78500
O314        O  0.72546842  0.23770632  0.16410811    -0.77200
Zn315      Zn  0.72932485  0.20366972  0.24674204     1.55700
O316        O  0.83036824  0.27557935  0.23340968    -0.78600
Cd317      Cd  0.74742598  0.27280894  0.19954301     1.59700
Cd318      Cd  0.71577182  0.28107145  0.27860285     1.59600
O319        O  0.71994441  0.31992601  0.19655718    -0.78600
O320        O  0.74707139  0.25174222  0.24850492    -1.89100
Cd321      Cd  0.79571307  0.25149832  0.26922635     1.59900
O322        O  0.69766855  0.32474276  0.25091500    -0.78500
O323        O  0.81244766  0.20019383  0.28049842    -0.77200
C324        C  0.66392951  0.21935079  0.29079808     0.85400
C325        C  0.71754817  0.20518715  0.16715659     0.85000
O326        O  0.76395473  0.16982443  0.26823739    -0.76100
C327        C  0.82794483  0.28532550  0.20105602     0.85800
O328        O  0.68287226  0.19870509  0.27256733    -0.76200
C329        C  0.70186606  0.33665133  0.21940470     0.86000
C330        C  0.77406386  0.29650644  0.33332398     0.86300
O331        O  0.74271877  0.29984265  0.32200393    -0.78600
N332        N  0.00370446  0.02074841  0.55977928    -0.34300
N333        N  0.94548104  0.02881176  0.51023317    -0.54800
N334        N  0.99834545  0.02146209  0.45487441    -0.34300
N335        N  0.05593621  0.01590024  0.50407179    -0.54800
C336        C  0.97720482  0.03278135  0.58043635     0.29300
C337        C  0.03419659  0.02584624  0.57740120     0.29300
C338        C  0.96986058  0.03262968  0.43691934     0.29300
C339        C  0.02690174  0.02663867  0.43364569     0.29300
C340        C  0.92750107  0.02048658  0.54039081     0.37900
C341        C  0.92452271  0.02021977  0.48272204     0.37900
C342        C  0.07481518  0.00383277  0.53164636     0.37900
C343        C  0.07177594  0.00391620  0.47447327     0.37900
C344        C  0.99122595  0.04694781  0.61103941    -0.19500
C345        C  0.02718830  0.04237323  0.60919557    -0.19500
C346        C  0.98057993  0.04632340  0.40430406    -0.19500
C347        C  0.01663674  0.04264652  0.40227945    -0.19500
C348        C  0.89457503  0.00706079  0.53198320    -0.20600
C349        C  0.89267299  0.00697340  0.49541878    -0.20600
C350        C  0.10303331  0.98426722  0.51959721    -0.20600
C351        C  0.10102817  0.98420780  0.48319885    -0.20600
C352        C  0.94089663  0.02543590  0.57505116    -0.15900
C353        C  0.06723315  0.01188873  0.56726887    -0.15900
C354        C  0.06060360  0.01222718  0.43991006    -0.15900
C355        C  0.93453640  0.02435918  0.44655475    -0.15900
H356        H  0.97680633  0.05765643  0.63327855     0.17000
H357        H  0.04587209  0.04910528  0.62954942     0.17000
H358        H  0.96387455  0.05602026  0.38336909     0.17000
H359        H  0.03313486  0.04914419  0.37953467     0.17000
H360        H  0.87428874  0.99769074  0.55017606     0.15200
H361        H  0.87067730  0.99764011  0.48002019     0.15200
H362        H  0.12279315  0.97126846  0.53534601     0.15200
H363        H  0.11895675  0.97112819  0.46529353     0.15200
H364        H  0.00051436  0.00461204  0.53775313     0.28500
H365        H  0.99749314  0.00536787  0.47751103     0.28500
N366        N  0.14189439  0.99307156  0.31268435    -0.01100
C367        C  0.14685744  0.02153881  0.29118221     0.01500
C368        C  0.15227677  0.01129868  0.25659859    -0.21400
C369        C  0.15047532  0.97536542  0.25657657    -0.21600
C370        C  0.14411859  0.96482756  0.29118151     0.01400
H371        H  0.15954046  0.02805815  0.23432515     0.15100
H372        H  0.15645801  0.95861474  0.23435945     0.15200
O373        O  0.25518370  0.23219067  0.17316621    -0.76100
C374        C  0.15679320  0.27931272  0.21441989     0.84900
O375        O  0.28958274  0.32101234  0.25423813    -0.77300
O376        O  0.18921416  0.26979885  0.32746854    -0.78700
O377        O  0.22711135  0.16320575  0.27685456    -0.78500
O378        O  0.27218217  0.18551723  0.20442831    -0.77200
Zn379      Zn  0.23635995  0.26719717  0.20832038     1.55700
O380        O  0.17694551  0.19032254  0.28970890    -0.78600
Cd381      Cd  0.26048103  0.20051082  0.25541100     1.59700
Cd382      Cd  0.26883185  0.27991911  0.28509633     1.59600
O383        O  0.30673342  0.19874897  0.28312413    -0.78600
O384        O  0.23878711  0.24805071  0.25643532    -1.89100
Cd385      Cd  0.19086718  0.24313915  0.27940589     1.59900
O386        O  0.31126887  0.25253453  0.30517702    -0.78500
O387        O  0.15461790  0.26614534  0.24566757    -0.77200
C388        C  0.28610075  0.32927852  0.22160954     0.85400
C389        C  0.26870029  0.20171236  0.17507485     0.85000
O390        O  0.18588561  0.28032127  0.19710273    -0.76100
C391        C  0.19541585  0.16246064  0.28823351     0.85800
O392        O  0.26656360  0.31103900  0.20150337    -0.76200
C393        C  0.32293893  0.22146261  0.30142888     0.86000
C394        C  0.21024993  0.29186025  0.34148787     0.86300
O395        O  0.24011765  0.29973099  0.32751396    -0.78600
N396        N  0.99464672  0.31765466  0.14924244    -0.01100
C397        C  0.02283566  0.29698590  0.15677994     0.01500
C398        C  0.01250007  0.26255536  0.16232428    -0.21400
C399        C  0.97692000  0.26136393  0.15832600    -0.21600
C400        C  0.96647673  0.29515682  0.15050686     0.01400
H401        H  0.02888647  0.24112596  0.17116091     0.15100
H402        H  0.96002395  0.23883285  0.16362679     0.15200
N403        N  0.30074081  0.14773451  0.00862251    -0.01100
C404        C  0.27934359  0.15178398  0.98015272     0.01500
C405        C  0.24491136  0.15736990  0.99066292    -0.21400
C406        C  0.24451437  0.15693371  0.02674417    -0.21600
C407        C  0.27871928  0.15111056  0.03708317     0.01400
H408        H  0.22288600  0.16349070  0.97375911     0.15100
H409        H  0.22217423  0.16270595  0.04371837     0.15200
N410        N  0.49318770  0.19098752  0.34131927    -0.01100
C411        C  0.52247007  0.20953932  0.33078657     0.01500
C412        C  0.51408536  0.24338666  0.32093998    -0.21400
C413        C  0.47855164  0.24634813  0.32502796    -0.21600
C414        C  0.46628682  0.21416494  0.33719689     0.01400
H415        H  0.53197704  0.26344637  0.31075502     0.15100
H416        H  0.46295641  0.26898708  0.31801140     0.15200
N417        N  0.85670346  0.00682987  0.31728134    -0.01100
C418        C  0.85762120  0.97896173  0.29459534     0.01500
C419        C  0.85924762  0.99036616  0.25980575    -0.21400
C420        C  0.85868933  0.02611650  0.26035995    -0.21600
C421        C  0.85673288  0.03576345  0.29545533     0.01400
H422        H  0.85786055  0.97425799  0.23639756     0.15100
H423        H  0.85630418  0.04324954  0.23746766     0.15200
N424        N  0.68353368  0.14295596  0.00542073    -0.01100
C425        C  0.70275793  0.13965450  0.97500299     0.01500
C426        C  0.73820967  0.13680768  0.98261936    -0.21400
C427        C  0.74126945  0.13940377  0.01857871    -0.21600
C428        C  0.70756213  0.14354112  0.03176539     0.01400
H429        H  0.75988124  0.13720580  0.96372297     0.15100
H430        H  0.76559563  0.14103547  0.03319798     0.15200
N431        N  0.65968642  0.50812683  0.18474348    -0.01100
C432        C  0.67103563  0.48099297  0.20551316     0.01500
C433        C  0.69110414  0.49323135  0.23314474    -0.21400
C434        C  0.69229662  0.52888473  0.22993958    -0.21600
C435        C  0.67298953  0.53755140  0.20041648     0.01400
H436        H  0.70422099  0.47763320  0.25309155     0.15100
H437        H  0.70621828  0.54678103  0.24706154     0.15200
N438        N  0.79847372  0.35301326  0.50189674    -0.01100
C439        C  0.77788897  0.35079062  0.47241818     0.01500
C440        C  0.74267608  0.34791190  0.48174213    -0.21400
C441        C  0.74087847  0.34759483  0.51781660    -0.21600
C442        C  0.77505806  0.35028333  0.52958947     0.01400
H443        H  0.72083083  0.34350028  0.46407188     0.15100
H444        H  0.71737313  0.34325530  0.53382665     0.15200
N445        N  0.32968434  0.49772162  0.17621318    -0.01100
C446        C  0.31901222  0.46957905  0.19658671     0.01500
C447        C  0.29595866  0.47977831  0.22299251    -0.21400
C448        C  0.29193244  0.51506256  0.21939678    -0.21600
C449        C  0.31262690  0.52558000  0.19090197     0.01400
H450        H  0.28271030  0.46295682  0.24231425     0.15100
H451        H  0.27566651  0.53157217  0.23592173     0.15200
N452        N  0.99640698  0.69937367  0.12783713    -0.01100
C453        C  0.96815744  0.72108243  0.12606631     0.01500
C454        C  0.97912239  0.75568721  0.12369210    -0.21400
C455        C  0.01514305  0.75554694  0.12496245    -0.21600
C456        C  0.02521823  0.72088529  0.12809517     0.01400
H457        H  0.96265230  0.77868405  0.12530084     0.15100
H458        H  0.03185257  0.77843306  0.12824667     0.15200
N459        N  0.30149344  0.85263313  0.99824916    -0.01100
C460        C  0.28425371  0.84905418  0.96680599     0.01500
C461        C  0.24834058  0.84650625  0.97268827    -0.21400
C462        C  0.24286629  0.84773556  0.00850503    -0.21600
C463        C  0.27562639  0.85103586  0.02374881     0.01400
H464        H  0.22847821  0.84090164  0.95311881     0.15100
H465        H  0.21787803  0.84361319  0.02207292     0.15200
N466        N  0.49725665  0.82501641  0.32668260    -0.01100
C467        C  0.46954484  0.80402038  0.31701871     0.01500
C468        C  0.48061991  0.77718649  0.29542714    -0.21400
C469        C  0.51606200  0.78088447  0.29143628    -0.21600
C470        C  0.52580057  0.80983461  0.31075135     0.01400
H471        H  0.46426584  0.75739444  0.28319149     0.15100
H472        H  0.53326289  0.76387448  0.27646417     0.15200
N473        N  0.18824627  0.63829191  0.49994103    -0.01100
C474        C  0.21350569  0.63930622  0.52545334     0.01500
C475        C  0.24680481  0.64103721  0.51037121    -0.21400
C476        C  0.24247347  0.64146190  0.47461994    -0.21600
C477        C  0.20667414  0.64031481  0.46863172     0.01400
H478        H  0.27155655  0.64447747  0.52394481     0.15100
H479        H  0.26309646  0.64607644  0.45502925     0.15200
N480        N  0.68846176  0.87072278  0.99517980    -0.01100
C481        C  0.70867814  0.87672311  0.96543656     0.01500
C482        C  0.74336414  0.88299658  0.97445651    -0.21400
C483        C  0.74546813  0.87909585  0.01030901    -0.21600
C484        C  0.71194061  0.87100444  0.02237320     0.01400
H485        H  0.76565553  0.88547088  0.95642572     0.15100
H486        H  0.76940482  0.87929197  0.02564264     0.15200
N487        N  0.18208329  0.34984097  0.50897989    -0.01100
C488        C  0.20360945  0.34925756  0.47974294     0.01500
C489        C  0.23865131  0.35031194  0.48912866    -0.21400
C490        C  0.23943613  0.35069283  0.52516972    -0.21600
C491        C  0.20482948  0.34981365  0.53672846     0.01400
H492        H  0.26123959  0.34761408  0.47163205     0.15100
H493        H  0.26273405  0.34843466  0.54130687     0.15200
N494        N  0.99324539  0.30698388  0.85542938    -0.01100
C495        C  0.96337980  0.28706925  0.85330195     0.01500
C496        C  0.97126309  0.25254827  0.84611396    -0.21400
C497        C  0.00708290  0.25070725  0.84348085    -0.21600
C498        C  0.01997115  0.28413554  0.84915265     0.01400
H499        H  0.95275421  0.23160518  0.84049469     0.15100
H500        H  0.02209965  0.22798963  0.83562620     0.15200
N501        N  0.16578947  0.99111108  0.68066850    -0.01100
C502        C  0.17485132  0.01751699  0.70295596     0.01500
C503        C  0.19172056  0.00472884  0.73249419    -0.21400
C504        C  0.19315855  0.96924229  0.72889166    -0.21600
C505        C  0.17696375  0.96142117  0.69732222     0.01400
H506        H  0.20276594  0.01987333  0.75386009     0.15100
H507        H  0.20520006  0.95091907  0.74711735     0.15200
N508        N  0.49612961  0.18099846  0.65647867    -0.01100
C509        C  0.52397937  0.20301462  0.66348849     0.01500
C510        C  0.51234318  0.23570900  0.67357513    -0.21400
C511        C  0.47655883  0.23457609  0.67323368    -0.21600
C512        C  0.46713796  0.20123340  0.66294733     0.01400
H513        H  0.52840308  0.25757019  0.68221033     0.15100
H514        H  0.45904814  0.25527203  0.68158012     0.15200
N515        N  0.35623041  0.49214272  0.80572959    -0.01100
C516        C  0.35206040  0.52017415  0.78328696     0.01500
C517        C  0.34600738  0.50912516  0.74915684    -0.21400
C518        C  0.34610149  0.47333462  0.75003446    -0.21600
C519        C  0.35214001  0.46343438  0.78470152     0.01400
H520        H  0.33952149  0.52544964  0.72654852     0.15100
H521        H  0.33936315  0.45626387  0.72833470     0.15200
N522        N  0.86016480  0.01105917  0.70562925    -0.01100
C523        C  0.85753376  0.98122686  0.72563670     0.01500
C524        C  0.85309934  0.98912426  0.76095459    -0.21400
C525        C  0.85269414  0.02500143  0.76298350    -0.21600
C526        C  0.85684057  0.03801748  0.72883088     0.01400
H527        H  0.84740757  0.97080106  0.78240376     0.15100
H528        H  0.84597379  0.03992964  0.78631094     0.15200
N529        N  0.00565796  0.69100729  0.85254335    -0.01100
C530        C  0.97839604  0.71417159  0.85471658     0.01500
C531        C  0.99080628  0.74796324  0.85930836    -0.21400
C532        C  0.02666979  0.74626226  0.85911947    -0.21600
C533        C  0.03535529  0.71153722  0.85425543     0.01400
H534        H  0.97546451  0.77178147  0.85945643     0.15100
H535        H  0.04456615  0.76854920  0.85829842     0.15200
N536        N  0.51119031  0.80679904  0.64006635    -0.01100
C537        C  0.48416616  0.78310146  0.64322761     0.01500
C538        C  0.49673554  0.74970346  0.64925883    -0.21400
C539        C  0.53258832  0.75252757  0.65035911    -0.21600
C540        C  0.54092718  0.78752952  0.64487410     0.01400
H541        H  0.48130549  0.72625776  0.65498890     0.15100
H542        H  0.55059864  0.73173965  0.65730186     0.15200
N543        N  0.67768734  0.50888869  0.83046501    -0.01100
C544        C  0.69854336  0.53633586  0.81958642     0.01500
C545        C  0.72433747  0.52536189  0.79625166    -0.21400
C546        C  0.71936854  0.49014297  0.79199149    -0.21600
C547        C  0.69072405  0.48063486  0.81289780     0.01400
H548        H  0.74355199  0.54170538  0.78234585     0.15100
H549        H  0.73460863  0.47322428  0.77492695     0.15200
N550        N  0.82020242  0.66677701  0.49684664    -0.01100
C551        C  0.80391260  0.68170284  0.46829783     0.01500
C552        C  0.77759408  0.70409960  0.47908758    -0.21400
C553        C  0.77695718  0.70317538  0.51514501    -0.21600
C554        C  0.80285244  0.68016876  0.52549811     0.01400
H555        H  0.76047714  0.71937763  0.46225978     0.15100
H556        H  0.75943242  0.71777607  0.53222848     0.15200
C557        C  0.18968207  0.28705773  0.40462698     0.25900
C558        C  0.20065637  0.30811439  0.37566591    -0.22200
C559        C  0.20655325  0.34418644  0.38082629     0.20900
C560        C  0.20338781  0.35861059  0.41465804     0.25900
C561        C  0.19438672  0.33726403  0.44393554    -0.22100
C562        C  0.18724783  0.30138907  0.43860537     0.20800
F563        F  0.18086313  0.27968863  0.46678063    -0.12100
F564        F  0.18469111  0.25198498  0.40066763    -0.14400
F565        F  0.21207186  0.39286674  0.41943291    -0.14400
F566        F  0.21695973  0.36517101  0.35331565    -0.12100
C567        C  0.33084018  0.37823385  0.22654617     0.25900
C568        C  0.30375514  0.36179505  0.20738912    -0.22200
C569        C  0.29109533  0.37902964  0.17681034     0.20900
C570        C  0.30150837  0.41372573  0.16885276     0.25900
C571        C  0.32482331  0.43169287  0.19107282    -0.22100
C572        C  0.34101641  0.41287782  0.21861919     0.20800
F573        F  0.36302487  0.42970963  0.24106879    -0.12100
F574        F  0.34561620  0.36185571  0.25476721    -0.14400
F575        F  0.28473908  0.43143765  0.14268759    -0.14400
F576        F  0.26586179  0.36387944  0.15667753    -0.12100
C577        C  0.37913928  0.18700297  0.30140649     0.25900
C578        C  0.35722453  0.21229040  0.31727208    -0.22200
C579        C  0.37021334  0.23171404  0.34585943     0.20900
C580        C  0.40546409  0.22899163  0.35552885     0.25900
C581        C  0.42818345  0.20630652  0.33734056    -0.22100
C582        C  0.41440488  0.18401470  0.31150690     0.20800
F583        F  0.43607602  0.16255544  0.29299875    -0.12100
F584        F  0.36763775  0.16768180  0.27373027    -0.14400
F585        F  0.41829968  0.25089912  0.38053401    -0.14400
F586        F  0.34939452  0.25498492  0.36305735    -0.12100
C587        C  0.30378980  0.19001357  0.08228982     0.25900
C588        C  0.28901386  0.15726789  0.07394419    -0.22200
C589        C  0.27301522  0.13678641  0.10092022     0.20900
C590        C  0.26898259  0.15018598  0.13500262     0.25900
C591        C  0.28001577  0.18462423  0.14215813    -0.22100
C592        C  0.29898104  0.20379170  0.11616922     0.20800
F593        F  0.31098472  0.23668010  0.12302782    -0.12100
F594        F  0.31871615  0.21052479  0.05649681    -0.14400
F595        F  0.25083813  0.13103554  0.15977551    -0.14400
F596        F  0.25773584  0.10546435  0.09323380    -0.12100
C597        C  0.09622413  0.30476588  0.21933339     0.25900
C598        C  0.12437711  0.29330736  0.19787719    -0.22200
C599        C  0.12006675  0.29308746  0.16079912     0.20900
C600        C  0.08713938  0.30034089  0.14603643     0.25900
C601        C  0.05822526  0.30796935  0.16797608    -0.22100
C602        C  0.06350024  0.31202557  0.20448289     0.20800
F603        F  0.03576787  0.31897106  0.22629747    -0.12100
F604        F  0.09965533  0.30689380  0.25502188    -0.14400
F605        F  0.08244122  0.29606655  0.11073860    -0.14400
F606        F  0.14657991  0.28253321  0.13907473    -0.12100
C607        C  0.13200086  0.08493555  0.29630424     0.25900
C608        C  0.15568052  0.05749877  0.30238627    -0.22200
C609        C  0.19101560  0.06551154  0.30954509     0.20900
C610        C  0.20306500  0.10021445  0.30828554     0.25900
C611        C  0.18024364  0.12763420  0.29855108    -0.22100
C612        C  0.14414141  0.11985607  0.29433530     0.20800
F613        F  0.12123185  0.14542175  0.28506792    -0.12100
F614        F  0.09773802  0.07756369  0.28928428    -0.14400
F615        F  0.23773871  0.10665832  0.31433134    -0.14400
F616        F  0.21463834  0.03936491  0.31451148    -0.12100
C617        C  0.90135528  0.98651013  0.36039592     0.25900
C618        C  0.87129522  0.00677293  0.35292220    -0.22200
C619        C  0.85948000  0.03017789  0.37932919     0.20900
C620        C  0.87875461  0.03502563  0.41075279     0.25900
C621        C  0.90967714  0.01585817  0.41695833    -0.22100
C622        C  0.91963356  0.99045909  0.39208031     0.20800
F623        F  0.94879088  0.97075957  0.39749537    -0.12100
F624        F  0.91509734  0.96464661  0.33585776    -0.14400
F625        F  0.86813985  0.05963277  0.43422748    -0.14400
F626        F  0.82965483  0.04885967  0.37467693    -0.12100
C627        C  0.13848653  0.01239830  0.37523428     0.25900
C628        C  0.12444323  0.99344725  0.34684583    -0.22200
C629        C  0.09080350  0.97793495  0.35086851     0.20900
C630        C  0.07100614  0.98270463  0.38178399     0.25900
C631        C  0.08380601  0.00412595  0.40893888    -0.22100
C632        C  0.11810559  0.01828667  0.40576842     0.20800
F633        F  0.13146840  0.03867262  0.43175568    -0.12100
F634        F  0.17180713  0.02536183  0.37338070    -0.14400
F635        F  0.03866482  0.96731338  0.38473971    -0.14400
F636        F  0.07611256  0.95981124  0.32397987    -0.12100
C637        C  0.92925020  0.99809013  0.63513314     0.25900
C638        C  0.91776458  0.02008579  0.60738095    -0.22200
C639        C  0.88567731  0.03802968  0.61198146     0.20900
C640        C  0.86575931  0.03399777  0.64352576     0.25900
C641        C  0.87831572  0.01326451  0.67169224    -0.22100
C642        C  0.91055784  0.99580613  0.66712046     0.20800
F643        F  0.92499531  0.97767875  0.69438057    -0.12100
F644        F  0.95943616  0.97944120  0.63174785    -0.14400
F645        F  0.83430671  0.05035094  0.64646237    -0.14400
F646        F  0.87406941  0.06021784  0.58638859    -0.12100
C647        C  0.08586274  0.98176431  0.62347770     0.25900
C648        C  0.09401610  0.00473288  0.59511812    -0.22200
C649        C  0.12737599  0.02109244  0.59389339     0.20900
C650        C  0.15171008  0.01522736  0.62099368     0.25900
C651        C  0.14284309  0.99371766  0.65038199    -0.22100
C652        C  0.10981228  0.97666248  0.65099283     0.20800
F653        F  0.10007375  0.95616906  0.67903816    -0.12100
F654        F  0.05434135  0.96462988  0.62473644    -0.14400
F655        F  0.18404293  0.03027418  0.61815234    -0.14400
F656        F  0.13611811  0.04334305  0.56680559    -0.12100
C657        C  0.79749213  0.29310005  0.39487095     0.25900
C658        C  0.78316608  0.31316611  0.36722811    -0.22200
C659        C  0.77349804  0.34806231  0.37367278     0.20900
C660        C  0.77666896  0.36220273  0.40760485     0.25900
C661        C  0.78868757  0.34143767  0.43594712    -0.22100
C662        C  0.79910960  0.30671914  0.42915890     0.20800
F663        F  0.80752732  0.28488279  0.45639246    -0.12100
F664        F  0.80635414  0.25909166  0.38953810    -0.14400
F665        F  0.76451964  0.39504030  0.41364541    -0.14400
F666        F  0.75921024  0.36786041  0.34747803    -0.12100
C667        C  0.69862692  0.39085988  0.17987994     0.25900
C668        C  0.68654210  0.37153881  0.20990601    -0.22200
C669        C  0.66199583  0.38751944  0.23283310     0.20900
C670        C  0.65245192  0.42256538  0.22776753     0.25900
C671        C  0.66730870  0.44274861  0.19997710    -0.22100
C672        C  0.68917771  0.42620624  0.17512559     0.20800
F673        F  0.70467749  0.44534186  0.14861815    -0.12100
F674        F  0.72209923  0.37673613  0.15680374    -0.14400
F675        F  0.63157167  0.43804489  0.25241888    -0.14400
F676        F  0.64892130  0.37010989  0.26173107    -0.12100
C677        C  0.68802892  0.20255090  0.10818892     0.25900
C678        C  0.70695956  0.18572145  0.13525035    -0.22200
C679        C  0.71875460  0.15123226  0.12995343     0.20900
C680        C  0.71586100  0.13583813  0.09667103     0.25900
C681        C  0.70043037  0.15430774  0.06856070    -0.22100
C682        C  0.68458625  0.18681501  0.07505939     0.20800
F683        F  0.66881556  0.20483815  0.04846256    -0.12100
F684        F  0.67417914  0.23485967  0.11337457    -0.14400
F685        F  0.73013463  0.10376332  0.09120471    -0.14400
F686        F  0.73584537  0.13358336  0.15594214    -0.12100
C687        C  0.84921349  0.13401435  0.29234933     0.25900
C688        C  0.81222916  0.13771181  0.29158132    -0.22200
C689        C  0.79105097  0.10803113  0.29986311     0.20900
C690        C  0.80623361  0.07517534  0.30575198     0.25900
C691        C  0.84293415  0.07102076  0.30379580    -0.22100
C692        C  0.86432804  0.10087358  0.29802675     0.20800
F693        F  0.89980366  0.09737134  0.29503224    -0.12100
F694        F  0.87078797  0.16178639  0.28490506    -0.14400
F695        F  0.78482368  0.04665983  0.31005072    -0.14400
F696        F  0.75535332  0.11028219  0.30055665    -0.12100
C697        C  0.58415613  0.20960586  0.35042607     0.25900
C698        C  0.55894098  0.19738719  0.32646990    -0.22200
C699        C  0.56998659  0.18709301  0.29243873     0.20900
C700        C  0.60519765  0.19133842  0.28176358     0.25900
C701        C  0.62962094  0.20678075  0.30471612    -0.22100
C702        C  0.61924524  0.21444437  0.33957188     0.20800
F703        F  0.64259671  0.22889590  0.36230372    -0.12100
F704        F  0.57386893  0.22108790  0.38281416    -0.14400
F705        F  0.61438530  0.18439552  0.24767836    -0.14400
F706        F  0.54584449  0.17720285  0.26808184    -0.12100
C707        C  0.91835827  0.32428550  0.18360605     0.25900
C708        C  0.92898175  0.30451305  0.15425058    -0.22200
C709        C  0.90384602  0.28392325  0.13660548     0.20900
C710        C  0.86963638  0.28027943  0.15023576     0.25900
C711        C  0.86033400  0.29657576  0.18211869    -0.22100
C712        C  0.88436989  0.31981060  0.19790131     0.20800
F713        F  0.87575080  0.33620720  0.22851692    -0.12100
F714        F  0.94218943  0.34414697  0.20120545    -0.14400
F715        F  0.84708671  0.25735267  0.13476265    -0.14400
F716        F  0.91372559  0.26389986  0.10870203    -0.12100
C717        C  0.19813764  0.70650198  0.39641835     0.25900
C718        C  0.20286235  0.68524640  0.36660224    -0.22200
C719        C  0.20001472  0.64863764  0.37048599     0.20900
C720        C  0.19547698  0.63335442  0.40425020     0.25900
C721        C  0.19414503  0.65451680  0.43449510    -0.22100
C722        C  0.19406193  0.69126059  0.43013281     0.20800
F723        F  0.19431793  0.71230390  0.45896810    -0.12100
F724        F  0.20076110  0.74197888  0.39329404    -0.14400
F725        F  0.19550664  0.59787553  0.40776979    -0.14400
F726        F  0.20335200  0.62772334  0.34178293    -0.12100
C727        C  0.37924170  0.81863358  0.28606170     0.25900
C728        C  0.36123004  0.79081903  0.30365882    -0.22200
C729        C  0.37769697  0.77438221  0.33260325     0.20900
C730        C  0.41239944  0.78340875  0.34153116     0.25900
C731        C  0.43130268  0.80916626  0.32195701    -0.22100
C732        C  0.41376868  0.82777322  0.29528144     0.20800
F733        F  0.43192137  0.85110302  0.27447758    -0.12100
F734        F  0.36500820  0.83454128  0.25729476    -0.14400
F735        F  0.42911875  0.76388101  0.36640758    -0.14400
F736        F  0.36110594  0.74809897  0.35093914    -0.12100
C737        C  0.30239491  0.80672581  0.10929931     0.25900
C738        C  0.27714793  0.81978189  0.13318960    -0.22200
C739        C  0.25546290  0.84743207  0.12230351     0.20900
C740        C  0.25697781  0.85977953  0.08718299     0.25900
C741        C  0.28065072  0.84504472  0.06246067    -0.22100
C742        C  0.30423645  0.81930892  0.07426750     0.20800
F743        F  0.32643925  0.80360402  0.05101780    -0.12100
F744        F  0.32383856  0.78017799  0.11936211    -0.14400
F745        F  0.23360558  0.88450022  0.07671245    -0.14400
F746        F  0.23043368  0.86007338  0.14466076    -0.12100
C747        C  0.09044093  0.71970260  0.20183411     0.25900
C748        C  0.12282874  0.71646398  0.18341098    -0.22200
C749        C  0.12193738  0.70843666  0.14687155     0.20900
C750        C  0.08971697  0.70682018  0.12890222     0.25900
C751        C  0.05801042  0.71280016  0.14710919    -0.22100
C752        C  0.05855620  0.71794565  0.18382980     0.20800
F753        F  0.02805389  0.72373597  0.20193725    -0.12100
F754        F  0.08934800  0.72642229  0.23707742    -0.14400
F755        F  0.08955427  0.70095755  0.09349645    -0.14400
F756        F  0.15217829  0.70355152  0.12809962    -0.12100
C757        C  0.28488601  0.57874202  0.16724617     0.25900
C758        C  0.31505308  0.56327359  0.18173338    -0.22200
C759        C  0.33808931  0.58427396  0.20149422     0.20900
C760        C  0.32884700  0.61871704  0.21041484     0.25900
C761        C  0.29674197  0.63291747  0.19896616    -0.22100
C762        C  0.27584822  0.61320544  0.17562905     0.20800
F763        F  0.24454128  0.62571940  0.16408632    -0.12100
F764        F  0.26151410  0.55884499  0.14905056    -0.14400
F765        F  0.35031940  0.63742814  0.23183229    -0.14400
F766        F  0.36730379  0.56991269  0.21592024    -0.12100
C767        C  0.18639290  0.92184300  0.31457942     0.25900
C768        C  0.15216716  0.92879309  0.30279385    -0.22200
C769        C  0.13057722  0.90083089  0.29208300     0.20900
C770        C  0.14415856  0.86690493  0.28988981     0.25900
C771        C  0.17989784  0.86085496  0.29723583    -0.22100
C772        C  0.20024873  0.88809692  0.31171715     0.20800
F773        F  0.23430607  0.88261564  0.32080875    -0.12100
F774        F  0.20786484  0.94859080  0.32455959    -0.14400
F775        F  0.12345834  0.84095915  0.27678478    -0.14400
F776        F  0.09748279  0.90693998  0.28038235    -0.12100
C777        C  0.82344984  0.71094590  0.37656976     0.25900
C778        C  0.79469812  0.69561476  0.35884314    -0.22200
C779        C  0.77613297  0.66794123  0.37592510     0.20900
C780        C  0.78414280  0.65824419  0.41096282     0.25900
C781        C  0.81009058  0.67662780  0.42994682    -0.22100
C782        C  0.83034466  0.70225073  0.41186331     0.20800
F783        F  0.85294397  0.72309505  0.42986640    -0.12100
F784        F  0.84241836  0.73760216  0.36140153    -0.14400
F785        F  0.76325068  0.63421241  0.42799897    -0.14400
F786        F  0.74874441  0.65181558  0.35968761    -0.12100
C787        C  0.64820926  0.59680929  0.20948769     0.25900
C788        C  0.67019076  0.57480766  0.18944284    -0.22200
C789        C  0.69894494  0.58997778  0.17092170     0.20900
C790        C  0.70689902  0.62568591  0.17411554     0.25900
C791        C  0.68803601  0.64647478  0.19826317    -0.22100
C792        C  0.65722286  0.63231034  0.21416085     0.20800
F793        F  0.63722994  0.65211824  0.23615909    -0.12100
F794        F  0.62083866  0.58281433  0.22850098    -0.14400
F795        F  0.73610362  0.63853808  0.15722335    -0.14400
F796        F  0.72281671  0.56930310  0.15435968    -0.12100
C797        C  0.71978255  0.87787375  0.08745856     0.25900
C798        C  0.70563172  0.85850317  0.05934230    -0.22200
C799        C  0.69352077  0.82408748  0.06602714     0.20900
C800        C  0.69819893  0.80843803  0.09949933     0.25900
C801        C  0.71487874  0.82705346  0.12685990    -0.22100
C802        C  0.72407172  0.86246751  0.12091918     0.20800
F803        F  0.74002254  0.88139054  0.14656493    -0.12100
F804        F  0.73170198  0.91118918  0.08179792    -0.14400
F805        F  0.68757954  0.77464329  0.10478599    -0.14400
F806        F  0.68024461  0.80452472  0.03935217    -0.12100
C807        C  0.61851614  0.78881082  0.32961251     0.25900
C808        C  0.63511126  0.80319034  0.29918891    -0.22200
C809        C  0.61629773  0.82709554  0.27802488     0.20900
C810        C  0.58085980  0.83389964  0.28521281     0.25900
C811        C  0.56360262  0.81799139  0.31438719    -0.22100
C812        C  0.58317695  0.79656472  0.33736145     0.20800
F813        F  0.56661189  0.77920098  0.36446220    -0.12100
F814        F  0.63565518  0.76545396  0.35049472    -0.14400
F815        F  0.56213212  0.85183450  0.26060696    -0.14400
F816        F  0.63076327  0.84050998  0.24766238    -0.12100
C817        C  0.81460843  0.93278428  0.31493373     0.25900
C818        C  0.84867211  0.94155017  0.30265017    -0.22200
C819        C  0.86927759  0.91502705  0.28718747     0.20900
C820        C  0.85513244  0.88141953  0.28134749     0.25900
C821        C  0.81975453  0.87380000  0.29015960    -0.22100
C822        C  0.80020030  0.89932485  0.30855621     0.20800
F823        F  0.76637514  0.89249852  0.31870068    -0.12100
F824        F  0.79380296  0.95781347  0.32935139    -0.14400
F825        F  0.87494518  0.85760978  0.26374815    -0.14400
F826        F  0.90209311  0.92276638  0.27451621    -0.12100
C827        C  0.92659380  0.69725208  0.17219559     0.25900
C828        C  0.93188665  0.71214531  0.13828549    -0.22200
C829        C  0.90304964  0.72708351  0.12078718     0.20900
C830        C  0.87030057  0.72974447  0.13792876     0.25900
C831        C  0.86607055  0.71850113  0.17332634    -0.22100
C832        C  0.89403969  0.70077250  0.18977799     0.20800
F833        F  0.89039363  0.68832500  0.22346662    -0.12100
F834        F  0.95396007  0.68271895  0.18980394    -0.14400
F835        F  0.84378532  0.74655701  0.12109674    -0.14400
F836        F  0.90744898  0.74185486  0.08814077    -0.12100
C837        C  0.29408595  0.38759104  0.81014040     0.25900
C838        C  0.31126744  0.35995037  0.79264683    -0.22200
C839        C  0.34578761  0.36558499  0.77970017     0.20900
C840        C  0.36135570  0.39901548  0.78101765     0.25900
C841        C  0.34327797  0.42719885  0.79642884    -0.22100
C842        C  0.31019212  0.42080165  0.81239895     0.20800
F843        F  0.29167023  0.44778051  0.82636401    -0.12100
F844        F  0.26093470  0.38300944  0.82338036    -0.14400
F845        F  0.39263005  0.40470602  0.76401173    -0.14400
F846        F  0.36302734  0.33972043  0.76233336    -0.12100
C847        C  0.38489284  0.17871993  0.71190363     0.25900
C848        C  0.36059012  0.19900304  0.69279462    -0.22200
C849        C  0.36996345  0.21116866  0.65872153     0.20900
C850        C  0.40452479  0.20736345  0.64612834     0.25900
C851        C  0.42988780  0.18990433  0.66665828    -0.22100
C852        C  0.41916596  0.17380544  0.69868656     0.20800
F853        F  0.44321793  0.15769459  0.71952713    -0.12100
F854        F  0.37619327  0.16574534  0.74450623    -0.14400
F855        F  0.41436964  0.22485480  0.61605915    -0.14400
F856        F  0.34707709  0.23060026  0.63948503    -0.12100
C857        C  0.15020458  0.07549426  0.71765223     0.25900
C858        C  0.17319102  0.05555414  0.69663269    -0.22200
C859        C  0.20313804  0.07179840  0.68151617     0.20900
C860        C  0.21087243  0.10686658  0.68834955     0.25900
C861        C  0.18969600  0.12603751  0.71196225    -0.22100
C862        C  0.15866827  0.11036868  0.72577497     0.20800
F863        F  0.13771036  0.12803137  0.74875242    -0.12100
F864        F  0.12173862  0.05996347  0.73354886    -0.14400
F865        F  0.24156812  0.12057482  0.67528406    -0.14400
F866        F  0.22780054  0.05235622  0.66453609    -0.12100
C867        C  0.08363387  0.28119374  0.86230151     0.25900
C868        C  0.05681351  0.29268017  0.83978083    -0.22200
C869        C  0.06499641  0.30044950  0.80410184     0.20900
C870        C  0.09923883  0.29583002  0.79094648     0.25900
C871        C  0.12544229  0.28205122  0.81299241    -0.22100
C872        C  0.11763829  0.27554247  0.84891570     0.20800
F873        F  0.14260107  0.26225966  0.87063532    -0.12100
F874        F  0.07604206  0.27244524  0.89649898    -0.14400
F875        F  0.10587835  0.30148618  0.75590785    -0.14400
F876        F  0.03896299  0.30889258  0.78117989    -0.12100
C877        C  0.18764454  0.28974052  0.61371541     0.25900
C878        C  0.20614266  0.30752937  0.64029390    -0.22200
C879        C  0.21697648  0.34243029  0.63434062     0.20900
C880        C  0.21242516  0.35816197  0.60121738     0.25900
C881        C  0.19645782  0.33947945  0.57366667    -0.22100
C882        C  0.18243142  0.30584728  0.58067808     0.20800
F883        F  0.16719798  0.28717168  0.55441643    -0.12100
F884        F  0.17607229  0.25627298  0.61919459    -0.14400
F885        F  0.22657464  0.39052704  0.59501092    -0.14400
F886        F  0.23517610  0.36010671  0.65940968    -0.12100
C887        C  0.30188042  0.19243357  0.93374423     0.25900
C888        C  0.28978968  0.15856804  0.94313543    -0.22200
C889        C  0.27563202  0.13688631  0.91692215     0.20900
C890        C  0.27173823  0.14955308  0.88232916     0.25900
C891        C  0.28237551  0.18396885  0.87343139    -0.22100
C892        C  0.29900782  0.20472418  0.89894925     0.20800
F893        F  0.30872213  0.23836877  0.89126433    -0.12100
F894        F  0.31248487  0.21514755  0.95909156    -0.14400
F895        F  0.25575911  0.12894024  0.85804122    -0.14400
F896        F  0.26190570  0.10492861  0.92584525    -0.12100
C897        C  0.76581167  0.36240069  0.59371584     0.25900
C898        C  0.78334639  0.34333237  0.56726256    -0.22200
C899        C  0.80139464  0.31270525  0.57681124     0.20900
C900        C  0.80006347  0.30013522  0.61192622     0.25900
C901        C  0.78041229  0.31798811  0.63793489    -0.22100
C902        C  0.76472592  0.35011693  0.62873031     0.20800
F903        F  0.74669464  0.36878611  0.65332828    -0.12100
F904        F  0.74761339  0.39176852  0.58510468    -0.14400
F905        F  0.81500790  0.26876420  0.61958506    -0.14400
F906        F  0.81679340  0.29283792  0.55141933    -0.12100
C907        C  0.66633002  0.39358890  0.77657145     0.25900
C908        C  0.68327079  0.37139611  0.80101314    -0.22200
C909        C  0.69208227  0.38516817  0.83449059     0.20900
C910        C  0.68983974  0.42128838  0.84068416     0.25900
C911        C  0.67809096  0.44392406  0.81396182    -0.22100
C912        C  0.66438337  0.42962870  0.78277917     0.20800
F913        F  0.65260541  0.45113977  0.75663791    -0.12100
F914        F  0.65454925  0.38116521  0.74522361    -0.14400
F915        F  0.70321016  0.43458260  0.87099093    -0.14400
F916        F  0.70586012  0.36437683  0.86017228    -0.12100
C917        C  0.84748284  0.13663563  0.72633685     0.25900
C918        C  0.81041001  0.13963822  0.72524477    -0.22200
C919        C  0.79013168  0.10907442  0.71950239     0.20900
C920        C  0.80616811  0.07634528  0.71690168     0.25900
C921        C  0.84279646  0.07310776  0.72016931    -0.22100
C922        C  0.86345248  0.10351036  0.72430951     0.20800
F923        F  0.89880463  0.10086219  0.72860393    -0.12100
F924        F  0.86812110  0.16529476  0.73189508    -0.14400
F925        F  0.78553488  0.04721883  0.71407457    -0.14400
F926        F  0.75444184  0.11049580  0.71784356    -0.12100
C927        C  0.62008350  0.22220229  0.66038678     0.25900
C928        C  0.63012569  0.20989017  0.69402115    -0.22200
C929        C  0.60664844  0.18805569  0.71333364     0.20900
C930        C  0.57263228  0.18138645  0.70079507     0.25900
C931        C  0.56181080  0.19501774  0.66788295    -0.22100
C932        C  0.58637203  0.21463929  0.64738722     0.20800
F933        F  0.57603076  0.23042065  0.61684481    -0.12100
F934        F  0.64210665  0.24334078  0.64101540    -0.14400
F935        F  0.54872760  0.16596276  0.72314665    -0.14400
F936        F  0.61504120  0.17669906  0.74637423    -0.12100
C937        C  0.69082828  0.20790598  0.90458375     0.25900
C938        C  0.70020196  0.18908788  0.87400184    -0.22200
C939        C  0.70265845  0.15223755  0.87644440     0.20900
C940        C  0.69901761  0.13509599  0.90934649     0.25900
C941        C  0.69282166  0.15441325  0.94024168    -0.22100
C942        C  0.68772999  0.19080465  0.93740118     0.20800
F943        F  0.68349384  0.21039218  0.96698496    -0.12100
F944        F  0.68675481  0.24326873  0.90320287    -0.14400
F945        F  0.70469579  0.10001317  0.91154659    -0.14400
F946        F  0.71185549  0.13310129  0.84770322    -0.12100
C947        C  0.88503345  0.31495413  0.80257208     0.25900
C948        C  0.85830600  0.29676920  0.82146699    -0.22200
C949        C  0.86546418  0.28370323  0.85560558     0.20900
C950        C  0.89981270  0.28501464  0.86864650     0.25900
C951        C  0.92727639  0.29995870  0.84811020    -0.22100
C952        C  0.91930575  0.31660881  0.81584999     0.20800
F953        F  0.94553135  0.33018244  0.79498027    -0.12100
F954        F  0.87853396  0.32883334  0.77004198    -0.14400
F955        F  0.90710183  0.26797702  0.89944154    -0.14400
F956        F  0.84031962  0.26591521  0.87453490    -0.12100
C957        C  0.23702533  0.64349068  0.62140341     0.25900
C958        C  0.21859438  0.67353847  0.63211398    -0.22200
C959        C  0.19162915  0.68638454  0.61011221     0.20900
C960        C  0.18671809  0.67247241  0.57615588     0.25900
C961        C  0.20831099  0.64523187  0.56401216    -0.22100
C962        C  0.23180782  0.62945075  0.58782140     0.20800
F963        F  0.25189799  0.60200283  0.57740698    -0.12100
F964        F  0.26147804  0.62864844  0.64272121    -0.14400
F965        F  0.16356783  0.68810528  0.55397630    -0.14400
F966        F  0.17211939  0.71437752  0.62006242    -0.12100
C967        C  0.43585849  0.81150326  0.67759830     0.25900
C968        C  0.44633895  0.79102349  0.64867115    -0.22200
C969        C  0.42104051  0.77007352  0.63185638     0.20900
C970        C  0.38701046  0.76645834  0.64609613     0.25900
C971        C  0.37753656  0.78364257  0.67766959    -0.22100
C972        C  0.40170247  0.80786129  0.69206576     0.20800
F973        F  0.39352666  0.82564143  0.72197381    -0.12100
F974        F  0.45982875  0.83196661  0.69430991    -0.14400
F975        F  0.36390573  0.74461818  0.62990781    -0.14400
F976        F  0.43022192  0.75079160  0.60318732    -0.12100
C977        C  0.07333937  0.70830377  0.80062361     0.25900
C978        C  0.06986346  0.70391143  0.83747540    -0.22200
C979        C  0.10039894  0.70182888  0.85797212     0.20900
C980        C  0.13394853  0.70483181  0.84199334     0.25900
C981        C  0.13760968  0.71098483  0.80512785    -0.22100
C982        C  0.10666301  0.71180204  0.78459065     0.20800
F983        F  0.10831077  0.71744866  0.74903149    -0.12100
F984        F  0.04416385  0.71207212  0.78042707    -0.14400
F985        F  0.16269073  0.70376037  0.86303709    -0.14400
F986        F  0.09765686  0.69902665  0.89377042    -0.12100
C987        C  0.35431713  0.61788273  0.77297493     0.25900
C988        C  0.32038158  0.62676837  0.78529764    -0.22200
C989        C  0.30002975  0.60100362  0.80319969     0.20900
C990        C  0.31186354  0.56634571  0.80555337     0.25900
C991        C  0.34539535  0.55720127  0.79251060    -0.22100
C992        C  0.36680558  0.58354452  0.77693643     0.20800
F993        F  0.39838344  0.57509922  0.76219805    -0.12100
F994        F  0.37465738  0.64193597  0.75530553    -0.14400
F995        F  0.28879657  0.54096828  0.81661747    -0.14400
F996        F  0.26694359  0.60834077  0.81481366    -0.12100
C997        C  0.29547414  0.84248813  0.86811587     0.25900
C998        C  0.29636626  0.80566150  0.86414624    -0.22200
C999        C  0.30247578  0.78491845  0.89467735     0.20900
C1000       C  0.30332833  0.80007775  0.92839768     0.25900
C1001       C  0.29890833  0.83640936  0.93256188    -0.22100
C1002       C  0.29665476  0.85760900  0.90200075     0.20800
F1003       F  0.29250532  0.89278318  0.90521764    -0.12100
F1004       F  0.29042382  0.86378035  0.83962108    -0.14400
F1005       F  0.30496074  0.77877910  0.95740500    -0.14400
F1006       F  0.30574130  0.74956286  0.89223726    -0.12100
C1007       C  0.21563224  0.87833493  0.66851608     0.25900
C1008       C  0.20038280  0.85618779  0.69458860    -0.22200
C1009       C  0.16979642  0.86690531  0.71240809     0.20900
C1010       C  0.15725155  0.90092432  0.70765113     0.25900
C1011       C  0.17528231  0.92482634  0.68521917    -0.22100
C1012       C  0.20285676  0.91252208  0.66358645     0.20800
F1013       F  0.22044453  0.93499546  0.64138514    -0.12100
F1014       F  0.24427466  0.86774725  0.64973082    -0.14400
F1015       F  0.13119185  0.91235959  0.72947775    -0.14400
F1016       F  0.15486863  0.84608477  0.73794366    -0.12100
C1017       C  0.82911610  0.70417620  0.61627209     0.25900
C1018       C  0.79845993  0.69320074  0.63516300    -0.22200
C1019       C  0.77600532  0.66844998  0.61911556     0.20900
C1020       C  0.78123424  0.65913362  0.58368702     0.25900
C1021       C  0.80909582  0.67391715  0.56359466    -0.22100
C1022       C  0.83425563  0.69464796  0.58076275     0.20800
F1023       F  0.86131183  0.70944000  0.56191513    -0.12100
F1024       F  0.85256288  0.72675170  0.63087937    -0.14400
F1025       F  0.75633612  0.63927930  0.56756247    -0.14400
F1026       F  0.74725045  0.65533971  0.63658672    -0.12100
C1027       C  0.67518546  0.62612023  0.79001876     0.25900
C1028       C  0.70262608  0.64550629  0.80562458    -0.22200
C1029       C  0.72125543  0.62998420  0.83382871     0.20900
C1030       C  0.71648614  0.59443391  0.84208682     0.25900
C1031       C  0.69182975  0.57413554  0.82368707    -0.22100
C1032       C  0.66974191  0.59070501  0.79917329     0.20800
F1033       F  0.64609004  0.57143447  0.78070114    -0.12100
F1034       F  0.65525288  0.64065261  0.76418029    -0.14400
F1035       F  0.73894652  0.57891211  0.86509151    -0.14400
F1036       F  0.74697767  0.64792260  0.85086200    -0.12100
C1037       C  0.61553968  0.81041240  0.70404647     0.25900
C1038       C  0.64369529  0.79604425  0.68478067    -0.22200
C1039       C  0.63883414  0.78723739  0.64913082     0.20900
C1040       C  0.60542600  0.78975687  0.63392005     0.25900
C1041       C  0.57633481  0.80049529  0.65434168    -0.22100
C1042       C  0.58187996  0.81162463  0.68930759     0.20800
F1043       F  0.55402352  0.81944066  0.71061732    -0.12100
F1044       F  0.61974975  0.81958020  0.73842591    -0.14400
F1045       F  0.60067115  0.77814133  0.60042273    -0.14400
F1046       F  0.66605815  0.77448842  0.62965196    -0.12100
C1047       C  0.70363769  0.80841001  0.89481461     0.25900
C1048       C  0.71501678  0.82766465  0.86470043    -0.22200
C1049       C  0.71753630  0.86448819  0.86696302     0.20900
C1050       C  0.71160738  0.88129038  0.89936645     0.25900
C1051       C  0.70219806  0.86175686  0.92994434    -0.22100
C1052       C  0.69752256  0.82524463  0.92706744     0.20800
F1053       F  0.69012495  0.80539769  0.95634206    -0.12100
F1054       F  0.69990373  0.77297873  0.89351238    -0.14400
F1055       F  0.71824345  0.91627201  0.90165511    -0.14400
F1056       F  0.72881213  0.88396361  0.83865129    -0.12100
C1057       C  0.85717775  0.88272043  0.72054783     0.25900
C1058       C  0.82231341  0.87659373  0.70976748    -0.22200
C1059       C  0.80271788  0.90499705  0.69644099     0.20900
C1060       C  0.81643686  0.93923516  0.69728871     0.25900
C1061       C  0.84956368  0.94570791  0.71221494    -0.22100
C1062       C  0.87032850  0.91711464  0.72264483     0.20800
F1063       F  0.90212034  0.92269539  0.73781089    -0.12100
F1064       F  0.87712244  0.85590941  0.73283337    -0.14400
F1065       F  0.79566885  0.96642752  0.68746165    -0.14400
F1066       F  0.76930407  0.89991849  0.68488427    -0.12100
C1067       C  0.89969017  0.69930876  0.79677368     0.25900
C1068       C  0.87436113  0.71990095  0.81435147    -0.22200
C1069       C  0.88143718  0.73144390  0.84878155     0.20900
C1070       C  0.91436303  0.72549945  0.86391991     0.25900
C1071       C  0.94095986  0.70783137  0.84504566    -0.22100
C1072       C  0.93262915  0.69297391  0.81220501     0.20800
F1073       F  0.95740938  0.67522007  0.79357752    -0.12100
F1074       F  0.89305045  0.68648898  0.76406360    -0.14400
F1075       F  0.92133712  0.73959535  0.89600883    -0.14400
F1076       F  0.85771873  0.75136751  0.86652311    -0.12100
C1077       C  0.36942551  0.92050899  0.02298457     0.25900
C1078       C  0.39799978  0.91187569  0.00076393    -0.22200
C1079       C  0.39609392  0.88049822  0.98146299     0.20900
C1080       C  0.36555537  0.85929876  0.98298030     0.25900
C1081       C  0.33557661  0.86986010  0.00238606    -0.22100
C1082       C  0.33845808  0.90035359  0.02322772     0.20800
F1083       F  0.31053996  0.91226654  0.04221652    -0.12100
F1084       F  0.37076624  0.94982367  0.04314964    -0.14400
F1085       F  0.36537355  0.82860358  0.96522951    -0.14400
F1086       F  0.42312707  0.87113059  0.95981579    -0.12100
C1087       C  0.36330875  0.14029316  0.98773603     0.25900
C1088       C  0.33424043  0.12952749  0.00903170    -0.22200
C1089       C  0.33744536  0.09848652  0.02938507     0.20900
C1090       C  0.36841510  0.07903303  0.02867894     0.25900
C1091       C  0.39644137  0.08876316  0.00601498    -0.22100
C1092       C  0.39377416  0.11968467  0.98569678     0.20800
F1093       F  0.42012174  0.12918801  0.96283306    -0.12100
F1094       F  0.36266904  0.17056080  0.96882954    -0.14400
F1095       F  0.37039803  0.04945862  0.04893395    -0.14400
F1096       F  0.30968594  0.08549229  0.04835490    -0.12100
C1097       C  0.59305515  0.88966819  0.97383228     0.25900
C1098       C  0.58607958  0.91742542  0.99698831    -0.22200
C1099       C  0.61113644  0.92597032  0.02257078     0.20900
C1100       C  0.64390493  0.90968062  0.02288452     0.25900
C1101       C  0.65220968  0.88282109  0.99861777    -0.22100
C1102       C  0.62553399  0.87210873  0.97501805     0.20800
F1103       F  0.63079573  0.84523638  0.95250662    -0.12100
F1104       F  0.56920416  0.88080540  0.94883898    -0.14400
F1105       F  0.66839400  0.92266767  0.04518287    -0.14400
F1106       F  0.60475051  0.95218999  0.04584079    -0.12100
C1107       C  0.58701167  0.12370318  0.99195367     0.25900
C1108       C  0.58326556  0.09175023  0.01067592    -0.22200
C1109       C  0.61112813  0.08022959  0.03189648     0.20900
C1110       C  0.64352036  0.09769360  0.03089068     0.25900
C1111       C  0.64839060  0.12845302  0.01021566    -0.22100
C1112       C  0.61925422  0.14213045  0.99203652     0.20800
F1113       F  0.62212423  0.17264028  0.97350056    -0.12100
F1114       F  0.56023759  0.13594291  0.97188229    -0.14400
F1115       F  0.67097329  0.08267419  0.04787218    -0.14400
F1116       F  0.60788128  0.05011504  0.05129431    -0.12100
C1117       C  0.02273344  0.39873900  0.87991259     0.25900
C1118       C  0.00701357  0.40246972  0.91365186    -0.22200
C1119       C  0.98473446  0.37522525  0.92640684     0.20900
C1120       C  0.97988693  0.34447710  0.90694372     0.25900
C1121       C  0.99621596  0.34031535  0.87356340    -0.22100
C1122       C  0.01712587  0.36817400  0.85996678     0.20800
F1123       F  0.03213641  0.36596911  0.82737064    -0.12100
F1124       F  0.04451198  0.42422725  0.86671471    -0.14400
F1125       F  0.96048982  0.31792077  0.92167218    -0.14400
F1126       F  0.96832871  0.37790734  0.95841442    -0.12100
C1127       C  0.02447482  0.40903266  0.12155641     0.25900
C1128       C  0.00687994  0.41311968  0.08924100    -0.22200
C1129       C  0.98168659  0.38778066  0.07973459     0.20900
C1130       C  0.97685061  0.35720331  0.10002175     0.25900
C1131       C  0.99581684  0.35180390  0.13158025    -0.22100
C1132       C  0.01836665  0.37907483  0.14294428     0.20800
F1133       F  0.03459338  0.37692297  0.17463959    -0.12100
F1134       F  0.04866366  0.43328949  0.13167613    -0.14400
F1135       F  0.95529681  0.33187494  0.08720532    -0.14400
F1136       F  0.96311000  0.39177323  0.04941232    -0.12100
C1137       C  0.98223263  0.64608029  0.89515114     0.25900
C1138       C  0.00411783  0.65488648  0.86573782    -0.22200
C1139       C  0.02805713  0.62922019  0.85370975     0.20900
C1140       C  0.03227590  0.59740839  0.87258270     0.25900
C1141       C  0.01198375  0.59022351  0.90322180    -0.22100
C1142       C  0.98586408  0.61413177  0.91317770     0.20800
F1143       F  0.96564557  0.60770974  0.94249161    -0.12100
F1144       F  0.95925322  0.66953485  0.90879927    -0.14400
F1145       F  0.05758334  0.57463268  0.86218036    -0.14400
F1146       F  0.04809655  0.63516548  0.82429510    -0.12100
C1147       C  0.98068918  0.65746331  0.08075671     0.25900
C1148       C  0.99720980  0.66428326  0.11329498    -0.22200
C1149       C  0.01824456  0.63784122  0.12831180     0.20900
C1150       C  0.02453206  0.60640246  0.11008544     0.25900
C1151       C  0.00928563  0.60046551  0.07678632    -0.22100
C1152       C  0.98623310  0.62586380  0.06309716     0.20800
F1153       F  0.97008698  0.62066322  0.03161932    -0.12100
F1154       F  0.96085980  0.68234951  0.06471502    -0.14400
F1155       F  0.04664606  0.58241177  0.12431544    -0.14400
F1156       F  0.03321592  0.64266969  0.16035962    -0.12100
C1157       C  0.34830658  0.51644387  0.11522979     0.25900
C1158       C  0.35519889  0.49838838  0.14715540    -0.22200
C1159       C  0.38806092  0.48192669  0.15065183     0.20900
C1160       C  0.41307395  0.48300758  0.12289481     0.25900
C1161       C  0.40649005  0.50163971  0.09110785    -0.22100
C1162       C  0.37379176  0.51862930  0.08791639     0.20800
F1163       F  0.36665849  0.53802696  0.05853909    -0.12100
F1164       F  0.31659858  0.53161730  0.11009858    -0.14400
F1165       F  0.44408531  0.46608386  0.12736271    -0.14400
F1166       F  0.39658966  0.46582972  0.18155601    -0.12100
C1167       C  0.64462690  0.52362064  0.12256604     0.25900
C1168       C  0.63617284  0.50634374  0.15468491    -0.22200
C1169       C  0.60384476  0.48797968  0.15719329     0.20900
C1170       C  0.58051476  0.48741063  0.12849424     0.25900
C1171       C  0.58824578  0.50629610  0.09693489    -0.22100
C1172       C  0.62061683  0.52464887  0.09459445     0.20800
F1173       F  0.62907583  0.54394401  0.06523871    -0.12100
F1174       F  0.67674583  0.53853482  0.11755999    -0.14400
F1175       F  0.55017697  0.46841968  0.13162664    -0.14400
F1176       F  0.59440954  0.47115737  0.18773684    -0.12100
C1177       C  0.36347518  0.51277209  0.86823941     0.25900
C1178       C  0.37492524  0.49255135  0.83926971    -0.22200
C1179       C  0.40685734  0.47418730  0.84270977     0.20900
C1180       C  0.42682531  0.47637900  0.87370378     0.25900
C1181       C  0.41621190  0.49790064  0.90197857    -0.22100
C1182       C  0.38411057  0.51590780  0.89888079     0.20800
F1183       F  0.37312975  0.53745167  0.92511256    -0.12100
F1184       F  0.33210672  0.52922822  0.86742386    -0.14400
F1185       F  0.45729221  0.45805544  0.87570701    -0.14400
F1186       F  0.41970030  0.45517024  0.81533499    -0.12100
C1187       C  0.65411014  0.52793557  0.88882712     0.25900
C1188       C  0.64974093  0.50935479  0.85702608    -0.22200
C1189       C  0.61804075  0.49059397  0.85227790     0.20900
C1190       C  0.59224893  0.48917010  0.87915086     0.25900
C1191       C  0.59631652  0.50848491  0.91051630    -0.22100
C1192       C  0.62729491  0.52850469  0.91460866     0.20800
F1193       F  0.63168430  0.54868897  0.94369758    -0.12100
F1194       F  0.68483757  0.54470653  0.89569869    -0.14400
F1195       F  0.56306755  0.46896640  0.87438929    -0.14400
F1196       F  0.61139879  0.47438814  0.82124586    -0.12100
C1197       C  0.09304575  0.61359450  0.48318092     0.25900
C1198       C  0.08924509  0.58295047  0.50402052    -0.22200
C1199       C  0.11683496  0.57354946  0.52666383     0.20900
C1200       C  0.14856616  0.59253812  0.52640023     0.25900
C1201       C  0.15336414  0.62241033  0.50425943    -0.22100
C1202       C  0.12453221  0.63341608  0.48369448     0.20800
F1203       F  0.12678110  0.66308917  0.46370327    -0.12100
F1204       F  0.06691162  0.62339143  0.46099736    -0.14400
F1205       F  0.17541903  0.57990777  0.54608220    -0.14400
F1206       F  0.11377916  0.54450245  0.54768694    -0.12100
C1207       C  0.10959440  0.41413545  0.52836749     0.25900
C1208       C  0.08497928  0.40628111  0.50208869    -0.22200
C1209       C  0.09027378  0.37634627  0.48130119     0.20900
C1210       C  0.12059670  0.35574346  0.48562901     0.25900
C1211       C  0.14708033  0.36547001  0.50981675    -0.22100
C1212       C  0.14023564  0.39440887  0.53201466     0.20800
F1213       F  0.16411707  0.40542153  0.55599163    -0.12100
F1214       F  0.10469846  0.44225596  0.54963923    -0.14400
F1215       F  0.12368753  0.32633147  0.46614006    -0.14400
F1216       F  0.06679429  0.36779995  0.45585924    -0.12100
C1217       C  0.89280932  0.38011414  0.47948408     0.25900
C1218       C  0.89733291  0.40927197  0.50150728    -0.22200
C1219       C  0.87068982  0.41699342  0.52618320     0.20900
C1220       C  0.83887277  0.39821188  0.52666606     0.25900
C1221       C  0.83326835  0.36960160  0.50369823    -0.22100
C1222       C  0.86149643  0.36007869  0.48106510     0.20800
F1223       F  0.85938550  0.33137475  0.46051576    -0.12100
F1224       F  0.91825050  0.37166797  0.45556550    -0.14400
F1225       F  0.81281211  0.40983243  0.54825200    -0.14400
F1226       F  0.87492947  0.44404525  0.54894934    -0.12100
C1227       C  0.90758748  0.62204924  0.48124493     0.25900
C1228       C  0.90271282  0.58974071  0.49934802    -0.22200
C1229       C  0.87012530  0.58375117  0.51695931     0.20900
C1230       C  0.84296927  0.60856117  0.51525011     0.25900
C1231       C  0.84798373  0.64077472  0.49728420    -0.22100
C1232       C  0.88094938  0.64748728  0.48104711     0.20800
F1233       F  0.88802068  0.67917969  0.46603040    -0.12100
F1234       F  0.93812449  0.62902809  0.46336331    -0.14400
F1235       F  0.81140802  0.60082178  0.53075863    -0.14400
F1236       F  0.86441182  0.55365775  0.53580641    -0.12100
C1237       C  0.51825383  0.12010058  0.64313743     0.25900
C1238       C  0.49634413  0.14897214  0.63542522    -0.22200
C1239       C  0.47476286  0.14653977  0.60530990     0.20900
C1240       C  0.47477829  0.11674809  0.58395537     0.25900
C1241       C  0.49867580  0.08938072  0.58976840    -0.22100
C1242       C  0.51985430  0.09095077  0.62024003     0.20800
F1243       F  0.54282417  0.06476097  0.62736016    -0.12100
F1244       F  0.53807644  0.11973610  0.67269378    -0.14400
F1245       F  0.45237813  0.11543519  0.55618172    -0.14400
F1246       F  0.45509492  0.17410314  0.59479650    -0.12100
C1247       C  0.51216780  0.12893427  0.35186116     0.25900
C1248       C  0.49194230  0.15826895  0.36161974    -0.22200
C1249       C  0.47205057  0.15597214  0.39339523     0.20900
C1250       C  0.47310308  0.12593294  0.41502883     0.25900
C1251       C  0.49585813  0.09811000  0.40698192    -0.22100
C1252       C  0.51496108  0.09970850  0.37474836     0.20800
F1253       F  0.53693054  0.07325835  0.36568311    -0.12100
F1254       F  0.52888626  0.12812656  0.32002116    -0.14400
F1255       F  0.45252910  0.12450673  0.44467252    -0.14400
F1256       F  0.45280881  0.18355460  0.40475318    -0.12100
C1257       C  0.51585903  0.88627217  0.34188648     0.25900
C1258       C  0.49702885  0.85508405  0.35034780    -0.22200
C1259       C  0.47890263  0.85345527  0.38309485     0.20900
C1260       C  0.48016935  0.88161462  0.40686508     0.25900
C1261       C  0.50049900  0.91199431  0.39921579    -0.22100
C1262       C  0.51799979  0.91408197  0.36614663     0.20800
F1263       F  0.53789109  0.94278092  0.35756143    -0.12100
F1264       F  0.53178047  0.89027444  0.30983087    -0.14400
F1265       F  0.46187286  0.87890713  0.43789605    -0.14400
F1266       F  0.46109015  0.82392101  0.39296138    -0.12100
C1267       C  0.52633203  0.90140764  0.61128749     0.25900
C1268       C  0.50816175  0.90257326  0.57891154    -0.22200
C1269       C  0.48956770  0.87228041  0.56845022     0.20900
C1270       C  0.49115421  0.84117494  0.58829516     0.25900
C1271       C  0.50923771  0.83983708  0.62066928    -0.22100
C1272       C  0.52631395  0.87059500  0.63222387     0.20800
F1273       F  0.54291413  0.87111924  0.66374192    -0.12100
F1274       F  0.54490864  0.92980346  0.62228721    -0.14400
F1275       F  0.47621553  0.81175072  0.57486873    -0.14400
F1276       F  0.47065785  0.87239062  0.53810348    -0.12100
loop_ 
_geom_bond_atom_site_label_1 
_geom_bond_atom_site_label_2 
_geom_bond_distance 
_geom_bond_site_symmetry_2 
_ccdc_geom_bond_type 
N1            C6   1.359   1_545  A
N1            C5   1.355       .  A
N1           H33   1.036       .  S
N2            C9   1.357       .  A
N2           C10   1.358       .  A
N3            C8   1.358       .  A
N3            C7   1.359   1_565  A
N3           H34   1.028   1_565  S
N4           C11   1.356       .  A
N4           C12   1.353       .  A
C5           C13   1.388       .  A
C5           C21   1.422       .  A
C6           C22   1.422       .  A
C6           C14   1.386       .  A
C7           C15   1.386       .  A
C7           C24   1.422       .  A
C8           C23   1.424       .  A
C8           C16   1.388       .  A
C9           C21   1.425       .  A
C9           C17   1.387       .  A
C10          C24   1.425       .  A
C10          C18   1.386       .  A
C11          C19   1.384       .  A
C11          C22   1.417       .  A
C12          C20   1.388       .  A
C12          C23   1.420       .  A
C13          C14   1.382   1_545  A
C13          H25   1.082       .  S
C14          H26   1.082       .  S
C15          C16   1.385   1_545  A
C15          H27   1.082       .  S
C16          H28   1.082       .  S
C17          C18   1.374       .  A
C17          H29   1.082       .  S
C18          H30   1.082       .  S
C19          C20   1.374       .  A
C19          H31   1.082       .  S
C20          H32   1.082       .  S
C21        C1251   1.507       .  S
C22        C1261   1.513       .  S
C23        C1268   1.508       .  S
C24        C1241   1.513       .  S
N35          C40   1.355       .  A
N35          C39   1.358       .  A
N35          H67   1.044       .  S
N36          C43   1.354       .  A
N36          C44   1.353   1_655  A
N37          C42   1.354       .  A
N37          C41   1.353       .  A
N37          H68   1.043       .  S
N38          C45   1.351       .  A
N38          C46   1.353   1_655  A
C39          C47   1.387       .  A
C39          C55   1.424       .  A
C40          C56   1.420       .  A
C40          C48   1.386       .  A
C41          C49   1.388       .  A
C41          C58   1.419       .  A
C42          C57   1.417       .  A
C42          C50   1.386       .  A
C43          C55   1.421       .  A
C43          C51   1.387       .  A
C44          C58   1.417       .  A
C44          C52   1.385       .  A
C45          C53   1.387       .  A
C45          C56   1.415       .  A
C46          C54   1.385       .  A
C46          C57   1.414       .  A
C47          C48   1.377       .  A
C47          H59   1.082       .  S
C48          H60   1.082       .  S
C49          C50   1.377       .  A
C49          H61   1.082       .  S
C50          H62   1.083       .  S
C51          C52   1.381   1_655  A
C51          H63   1.082       .  S
C52          H64   1.082       .  S
C53          C54   1.380   1_655  A
C53          H65   1.082       .  S
C54          H66   1.082       .  S
C55        C1228   1.515       .  S
C56        C1218   1.498       .  S
C57        C1208   1.499       .  S
C58        C1198   1.501       .  S
N69          C74   1.355       .  A
N69          C73   1.355       .  A
N69         H101   1.041       .  S
N70          C77   1.357       .  A
N70          C78   1.356   1_556  A
N71          C76   1.357       .  A
N71          C75   1.356       .  A
N71         H102   1.042       .  S
N72          C79   1.353   1_554  A
N72          C80   1.354       .  A
C73          C81   1.387       .  A
C73          C89   1.418       .  A
C74          C90   1.419       .  A
C74          C82   1.387       .  A
C75          C83   1.388       .  A
C75          C92   1.422       .  A
C76          C91   1.421       .  A
C76          C84   1.386       .  A
C77          C89   1.423       .  A
C77          C85   1.385       .  A
C78          C92   1.426       .  A
C78          C86   1.387       .  A
C79          C87   1.387       .  A
C79          C90   1.418       .  A
C80          C88   1.387       .  A
C80          C91   1.419       .  A
C81          C82   1.377       .  A
C81          H93   1.082       .  S
C82          H94   1.082       .  S
C83          C84   1.379       .  A
C83          H95   1.082       .  S
C84          H96   1.082       .  S
C85          C86   1.381   1_556  A
C85          H97   1.082       .  S
C86          H98   1.082       .  S
C87          C88   1.378   1_556  A
C87          H99   1.082       .  S
C88         H100   1.082       .  S
C89        C1181   1.511       .  S
C90        C1191   1.502       .  S
C91        C1171   1.511       .  S
C92        C1161   1.514       .  S
N103        C108   1.353       .  A
N103        C107   1.351       .  A
N103        H135   1.054       .  S
N104        C111   1.352   1_556  A
N104        C112   1.354       .  A
N105        C110   1.354       .  A
N105        C109   1.356       .  A
N105        H136   1.043       .  S
N106        C113   1.354   1_556  A
N106        C114   1.352       .  A
C107        C115   1.387   1_455  A
C107        C123   1.417       .  A
C108        C124   1.419       .  A
C108        C116   1.387   1_455  A
C109        C117   1.387   1_455  A
C109        C126   1.421       .  A
C110        C125   1.418       .  A
C110        C118   1.386   1_455  A
C111        C123   1.416       .  A
C111        C119   1.387       .  A
C112        C126   1.417       .  A
C112        C120   1.386       .  A
C113        C121   1.386       .  A
C113        C124   1.417       .  A
C114        C122   1.388       .  A
C114        C125   1.416       .  A
C115        C116   1.384       .  A
C115        H127   1.082       .  S
C116        H128   1.082       .  S
C117        C118   1.386       .  A
C117        H129   1.082       .  S
C118        H130   1.082       .  S
C119        C120   1.374   1_554  A
C119        H131   1.083       .  S
C120        H132   1.082       .  S
C121        C122   1.374   1_554  A
C121        H133   1.082       .  S
C122        H134   1.083       .  S
C123       C1128   1.496       .  S
C124       C1151   1.504       .  S
C125       C1141   1.498       .  S
C126       C1118   1.508       .  S
N137        C142   1.353       .  A
N137        C141   1.352   1_545  A
N137        H169   1.042   1_556  S
N138        C145   1.351       .  A
N138        C146   1.352   1_556  A
N139        C144   1.353       .  A
N139        C143   1.354   1_545  A
N139        H170   1.043   1_556  S
N140        C147   1.349   1_556  A
N140        C148   1.348   1_556  A
C141        C149   1.387       .  A
C141        C157   1.415       .  A
C142        C158   1.417   1_556  A
C142        C150   1.388       .  A
C143        C151   1.387       .  A
C143        C160   1.418       .  A
C144        C159   1.417   1_556  A
C144        C152   1.387       .  A
C145        C157   1.412       .  A
C145        C153   1.385   1_556  A
C146        C160   1.415   1_554  A
C146        C154   1.386       .  A
C147        C155   1.386       .  A
C147        C158   1.411       .  A
C148        C156   1.387       .  A
C148        C159   1.411       .  A
C149        C150   1.375   1_565  A
C149        H161   1.083       .  S
C150        H162   1.083       .  S
C151        C152   1.376   1_565  A
C151        H163   1.082       .  S
C152        H164   1.082       .  S
C153        C154   1.381       .  A
C153        H165   1.082       .  S
C154        H166   1.082       .  S
C155        C156   1.381       .  A
C155        H167   1.082       .  S
C156        H168   1.082       .  S
C157       C1098   1.494       .  S
C158       C1108   1.492       .  S
C159       C1091   1.491       .  S
C160       C1078   1.502   1_556  S
O171        C187   1.277       .  A
O171       Zn177   2.038       .  S
C172       C1048   1.488       .  S
C172        O188   1.276       .  A
C172        O185   1.275       .  A
O173        C186   1.279       .  A
O173       Cd180   2.098       .  S
O174        C192   1.273       .  A
O174       Cd183   2.064       .  S
O175        C189   1.279       .  A
O175       Cd179   2.099       .  S
O176        C187   1.276       .  A
O176       Cd179   2.080       .  S
Zn177       O188   2.033       .  S
Zn177       O190   2.004       .  S
Zn177       O182   1.950       .  S
O178        C189   1.275       .  A
O178       Cd183   2.063       .  S
Cd179       O181   2.079       .  S
Cd179       O182   2.011       .  S
Cd180       O184   2.095       .  S
Cd180       O193   2.089       .  S
Cd180       O182   2.008       .  S
O181        C191   1.276       .  A
O182       Cd183   2.006       .  S
Cd183       O185   2.082       .  S
O184        C191   1.279       .  A
C186       C1028   1.489       .  S
C186        O190   1.273       .  A
C187       C1068   1.485       .  S
C189       C1058   1.484       .  S
C191       C1018   1.499       .  S
C192       C1038   1.475       .  S
C192        O193   1.278       .  A
O194        C210   1.275       .  A
O194       Zn200   2.024       .  S
C195       C1008   1.473       .  S
C195        O211   1.274       .  A
C195        O208   1.279       .  A
O196        C209   1.276       .  A
O196       Cd203   2.078       .  S
O197        C215   1.278       .  A
O197       Cd206   2.102       .  S
O198        C212   1.280       .  A
O198       Cd202   2.094       .  S
O199        C210   1.279       .  A
O199       Cd202   2.105       .  S
Zn200       O211   2.017       .  S
Zn200       O213   2.031       .  S
Zn200       O205   1.963       .  S
O201        C212   1.282       .  A
O201       Cd206   2.121       .  S
Cd202       O204   2.095       .  S
Cd202       O205   2.011       .  S
Cd203       O207   2.072       .  S
Cd203       O216   2.076       .  S
Cd203       O205   1.996       .  S
O204        C214   1.279       .  A
O205       Cd206   2.021       .  S
Cd206       O208   2.091       .  S
O207        C214   1.276       .  A
C209        C958   1.490       .  S
C209        O213   1.274       .  A
C210        C981   1.500       .  S
C212        C998   1.505       .  S
C214        C988   1.486       .  S
C215        C971   1.494       .  S
C215        O216   1.277       .  A
O217        C233   1.276       .  A
O217       Zn223   2.019       .  S
C218        C938   1.486       .  S
C218        O234   1.275       .  A
C218        O231   1.274       .  A
O219        C232   1.277       .  A
O219       Cd226   2.085       .  S
O220        C238   1.273       .  A
O220       Cd229   2.060       .  S
O221        C235   1.277       .  A
O221       Cd225   2.077       .  S
O222        C233   1.277       .  A
O222       Cd225   2.093       .  S
Zn223       O234   2.037       .  S
Zn223       O236   2.029       .  S
Zn223       O228   1.948       .  S
O224        C235   1.275       .  A
O224       Cd229   2.074       .  S
Cd225       O227   2.095       .  S
Cd225       O228   2.015       .  S
Cd226       O230   2.075       .  S
Cd226       O239   2.091       .  S
Cd226       O228   1.999       .  S
O227        C237   1.277       .  A
O228       Cd229   2.004       .  S
Cd229       O231   2.062       .  S
O230        C237   1.276       .  A
C232        C928   1.485       .  S
C232        O236   1.276       .  A
C233        C918   1.492       .  S
C235        C948   1.479       .  S
C237        C901   1.487       .  S
C238        C908   1.493       .  S
C238        O239   1.279       .  A
O240        C256   1.275       .  A
O240       Zn246   2.017       .  S
C241        C848   1.482       .  S
C241        O257   1.276       .  A
C241        O254   1.275       .  A
O242        C255   1.275       .  A
O242       Cd249   2.079       .  S
O243        C261   1.273       .  A
O243       Cd252   2.059       .  S
O244        C258   1.277       .  A
O244       Cd248   2.083       .  S
O245        C256   1.273       .  A
O245       Cd248   2.056       .  S
Zn246       O257   2.040       .  S
Zn246       O259   2.000       .  S
Zn246       O251   1.948       .  S
O247        C258   1.277       .  A
O247       Cd252   2.088       .  S
Cd248       O250   2.065       .  S
Cd248       O251   1.999       .  S
Cd249       O253   2.081       .  S
Cd249       O262   2.069       .  S
Cd249       O251   2.001       .  S
O250        C260   1.273       .  A
O251       Cd252   1.997       .  S
Cd252       O254   2.073       .  S
O253        C260   1.276       .  A
C255        C861   1.480       .  S
C255        O259   1.272       .  A
C256        C878   1.472       .  S
C258        C838   1.487       .  S
C260        C871   1.473       .  S
C261        C891   1.471       .  S
C261        O262   1.276       .  A
O263        C279   1.275       .  A
O263       Zn269   2.029       .  S
C264        C831   1.485       .  S
C264        O280   1.277       .  A
C264        O277   1.277       .  A
O265        C278   1.278       .  A
O265       Cd272   2.098       .  S
O266        C284   1.275       .  A
O266       Cd275   2.064       .  S
O267        C281   1.276       .  A
O267       Cd271   2.082       .  S
O268        C279   1.277       .  A
O268       Cd271   2.088       .  S
Zn269       O280   2.039       .  S
Zn269       O282   2.023       .  S
Zn269       O274   1.957       .  S
O270        C281   1.280       .  A
O270       Cd275   2.115       .  S
Cd271       O273   2.053       .  S
Cd271       O274   2.003       .  S
Cd272       O276   2.099       .  S
Cd272       O285   2.110       .  S
Cd272       O274   2.023       .  S
O273        C283   1.273       .  A
O274       Cd275   2.010       .  S
Cd275       O277   2.082       .  S
O276        C283   1.279       .  A
C278        C791   1.490       .  S
C278        O282   1.275       .  A
C279        C801   1.488       .  S
C281        C821   1.495       .  S
C283        C808   1.485       .  S
C284        C778   1.495       .  S
C284        O285   1.281       .  A
O286        C302   1.277       .  A
O286       Zn292   2.056       .  S
C287        C771   1.478       .  S
C287        O303   1.275       .  A
C287        O300   1.273       .  A
O288        C301   1.281       .  A
O288       Cd295   2.108       .  S
O289        C307   1.273       .  A
O289       Cd298   2.066       .  S
O290        C304   1.276       .  A
O290       Cd294   2.086       .  S
O291        C302   1.273       .  A
O291       Cd294   2.064       .  S
Zn292       O303   2.020       .  S
Zn292       O305   2.016       .  S
Zn292       O297   1.953       .  S
O293        C304   1.276       .  A
O293       Cd298   2.075       .  S
Cd294       O296   2.058       .  S
Cd294       O297   2.001       .  S
Cd295       O299   2.110       .  S
Cd295       O308   2.104       .  S
Cd295       O297   2.014       .  S
O296        C306   1.274       .  A
O297       Cd298   2.006       .  S
Cd298       O300   2.064       .  S
O299        C306   1.281       .  A
C301        C728   1.493       .  S
C301        O305   1.275       .  A
C302        C738   1.479       .  S
C304        C748   1.497       .  S
C306        C761   1.488       .  S
C307        C718   1.476       .  S
C307        O308   1.280       .  A
O309        C325   1.273       .  A
O309       Zn315   2.015       .  S
C310        C688   1.496       .  S
C310        O326   1.275       .  A
C310        O323   1.278       .  A
O311        C324   1.276       .  A
O311       Cd318   2.074       .  S
O312        C330   1.275       .  A
O312       Cd321   2.083       .  S
O313        C327   1.276       .  A
O313       Cd317   2.075       .  S
O314        C325   1.276       .  A
O314       Cd317   2.077       .  S
Zn315       O326   2.020       .  S
Zn315       O328   2.012       .  S
Zn315       O320   1.948       .  S
O316        C327   1.277       .  A
O316       Cd321   2.077       .  S
Cd317       O319   2.087       .  S
Cd317       O320   2.007       .  S
Cd318       O322   2.082       .  S
Cd318       O331   2.071       .  S
Cd318       O320   1.993       .  S
O319        C329   1.275       .  A
O320       Cd321   2.013       .  S
Cd321       O323   2.101       .  S
O322        C329   1.277       .  A
C324        C701   1.473       .  S
C324        O328   1.273       .  A
C325        C678   1.479       .  S
C327        C711   1.473       .  S
C329        C668   1.497       .  S
C330        C658   1.477       .  S
C330        O331   1.275       .  A
N332        C337   1.354       .  A
N332        C336   1.352   1_455  A
N332        H364   1.047       .  S
N333        C340   1.354       .  A
N333        C341   1.356       .  A
N334        C339   1.353   1_655  A
N334        C338   1.352       .  A
N334        H365   1.047       .  S
N335        C342   1.349       .  A
N335        C343   1.349       .  A
C336        C344   1.389       .  A
C336        C352   1.421       .  A
C337        C353   1.416       .  A
C337        C345   1.385       .  A
C338        C346   1.388       .  A
C338        C355   1.417       .  A
C339        C354   1.417       .  A
C339        C347   1.387       .  A
C340        C352   1.423       .  A
C340        C348   1.387       .  A
C341        C355   1.420       .  A
C341        C349   1.385       .  A
C342        C350   1.385   1_545  A
C342        C353   1.410       .  A
C343        C351   1.386   1_545  A
C343        C354   1.410       .  A
C344        C345   1.378   1_655  A
C344        H356   1.082       .  S
C345        H357   1.082       .  S
C346        C347   1.378   1_655  A
C346        H358   1.083       .  S
C347        H359   1.082       .  S
C348        C349   1.383       .  A
C348        H360   1.082   1_545  S
C349        H361   1.082   1_545  S
C350        C351   1.377       .  A
C350        H362   1.082       .  S
C351        H363   1.082       .  S
C352        C638   1.507       .  S
C353        C648   1.495       .  S
C354        C631   1.492       .  S
C355        C621   1.506       .  S
N366        C370   1.357       .  A
N366        C367   1.359   1_565  A
N366        C628   1.444       .  S
C367        C368   1.380       .  A
C367        C608   1.475       .  S
C368        C369   1.370   1_545  A
C368        H371   1.082       .  S
C369        C370   1.381       .  A
C369        H372   1.082       .  S
C370        C768   1.473       .  S
O373        C389   1.275       .  A
O373       Zn379   2.021       .  S
C374        C598   1.486       .  S
C374        O390   1.277       .  A
C374        O387   1.279       .  A
O375        C388   1.277       .  A
O375       Cd382   2.086       .  S
O376        C394   1.277       .  A
O376       Cd385   2.089       .  S
O377        C391   1.273       .  A
O377       Cd381   2.050       .  S
O378        C389   1.271       .  A
O378       Cd381   2.058       .  S
Zn379       O390   2.032       .  S
Zn379       O392   2.030       .  S
Zn379       O384   1.954       .  S
O380        C391   1.279       .  A
O380       Cd385   2.107       .  S
Cd381       O383   2.054       .  S
Cd381       O384   1.997       .  S
Cd382       O386   2.073       .  S
Cd382       O395   2.079       .  S
Cd382       O384   1.994       .  S
O383        C393   1.272       .  A
O384       Cd385   2.012       .  S
Cd385       O387   2.078       .  S
O386        C393   1.276       .  A
C388        C568   1.495       .  S
C388        O392   1.274       .  A
C389        C591   1.470       .  S
C391        C611   1.488       .  S
C393        C578   1.481       .  S
C394        C558   1.480       .  S
C394        O395   1.277       .  A
N396        C400   1.364       .  A
N396        C397   1.365   1_655  A
N396       C1131   1.456       .  S
C397        C398   1.379       .  A
C397        C601   1.471       .  S
C398        C399   1.361   1_455  A
C398        H401   1.083       .  S
C399        C400   1.380       .  A
C399        H402   1.083       .  S
C400        C708   1.475       .  S
N403        C407   1.362       .  A
N403        C404   1.362   1_554  A
N403       C1088   1.454       .  S
C404        C405   1.380       .  A
C404        C888   1.468       .  S
C405        C406   1.362   1_556  A
C405        H408   1.083       .  S
C406        C407   1.379       .  A
C406        H409   1.083       .  S
C407        C588   1.470       .  S
N410        C414   1.365       .  A
N410        C411   1.365       .  A
N410       C1248   1.457       .  S
C411        C412   1.379       .  A
C411        C698   1.471       .  S
C412        C413   1.361       .  A
C412        H415   1.083       .  S
C413        C414   1.380       .  A
C413        H416   1.083       .  S
C414        C581   1.474       .  S
N417        C421   1.369       .  A
N417        C418   1.371   1_545  A
N417        C618   1.461       .  S
C418        C419   1.380       .  A
C418        C818   1.490       .  S
C419        C420   1.363   1_565  A
C419        H422   1.083       .  S
C420        C421   1.380       .  A
C420        H423   1.083       .  S
C421        C691   1.482       .  S
N424        C428   1.357       .  A
N424        C425   1.361   1_554  A
N424       C1111   1.448       .  S
C425        C426   1.384       .  A
C425        C941   1.476       .  S
C426        C427   1.368   1_556  A
C426        H429   1.083       .  S
C427        C428   1.378       .  A
C427        H430   1.082       .  S
C428        C681   1.475       .  S
N431        C435   1.368       .  A
N431        C432   1.367       .  A
N431       C1168   1.453       .  S
C432        C433   1.381       .  A
C432        C671   1.480       .  S
C433        C434   1.363       .  A
C433        H436   1.083       .  S
C434        C435   1.379       .  A
C434        H437   1.083       .  S
C435        C788   1.480       .  S
N438        C442   1.367       .  A
N438        C439   1.369       .  A
N438       C1221   1.461       .  S
C439        C440   1.381       .  A
C439        C661   1.480       .  S
C440        C441   1.363       .  A
C440        H443   1.083       .  S
C441        C442   1.379       .  A
C441        H444   1.082       .  S
C442        C898   1.482       .  S
N445        C449   1.367       .  A
N445        C446   1.369       .  A
N445       C1158   1.455       .  S
C446        C447   1.380       .  A
C446        C571   1.479       .  S
C447        C448   1.360       .  A
C447        H450   1.083       .  S
C448        C449   1.379       .  A
C448        H451   1.083       .  S
C449        C758   1.476       .  S
N452        C456   1.361   1_655  A
N452        C453   1.361       .  A
N452       C1148   1.451       .  S
C453        C454   1.381       .  A
C453        C828   1.483       .  S
C454        C455   1.368   1_655  A
C454        H457   1.083       .  S
C455        C456   1.382       .  A
C455        H458   1.083       .  S
C456        C751   1.477       .  S
N459        C463   1.368   1_556  A
N459        C460   1.369       .  A
N459       C1081   1.456   1_556  S
C460        C461   1.381       .  A
C460       C1001   1.488       .  S
C461        C462   1.367   1_556  A
C461        H464   1.083       .  S
C462        C463   1.381       .  A
C462        H465   1.082       .  S
C463        C741   1.491       .  S
N466        C470   1.369       .  A
N466        C467   1.371       .  A
N466       C1258   1.460       .  S
C467        C468   1.380       .  A
C467        C731   1.476       .  S
C468        C469   1.358       .  A
C468        H471   1.083       .  S
C469        C470   1.379       .  A
C469        H472   1.083       .  S
C470        C811   1.473       .  S
N473        C477   1.368       .  A
N473        C474   1.367       .  A
N473       C1201   1.457       .  S
C474        C475   1.381       .  A
C474        C961   1.487       .  S
C475        C476   1.361       .  A
C475        H478   1.082       .  S
C476        C477   1.380       .  A
C476        H479   1.083       .  S
C477        C721   1.478       .  S
N480        C484   1.367   1_556  A
N480        C481   1.369       .  A
N480       C1101   1.459       .  S
C481        C482   1.383       .  A
C481       C1051   1.484       .  S
C482        C483   1.363   1_556  A
C482        H485   1.083       .  S
C483        C484   1.378       .  A
C483        H486   1.082       .  S
C484        C798   1.486       .  S
N487        C491   1.365       .  A
N487        C488   1.366       .  A
N487       C1211   1.461       .  S
C488        C489   1.380       .  A
C488        C561   1.476       .  S
C489        C490   1.361       .  A
C489        H492   1.083       .  S
C490        C491   1.379       .  A
C490        H493   1.083       .  S
C491        C881   1.476       .  S
N494        C498   1.363   1_655  A
N494        C495   1.362       .  A
N494       C1121   1.453       .  S
C495        C496   1.380       .  A
C495        C951   1.474       .  S
C496        C497   1.364   1_655  A
C496        H499   1.083       .  S
C497        C498   1.380       .  A
C497        H500   1.083       .  S
C498        C868   1.471       .  S
N501        C505   1.362       .  A
N501        C502   1.362   1_565  A
N501        C651   1.448       .  S
C502        C503   1.379       .  A
C502        C858   1.468       .  S
C503        C504   1.362   1_545  A
C503        H506   1.083       .  S
C504        C505   1.381       .  A
C504        H507   1.083       .  S
C505       C1011   1.473       .  S
N508        C512   1.370       .  A
N508        C509   1.373       .  A
N508       C1238   1.463       .  S
C509        C510   1.381       .  A
C509        C931   1.481       .  S
C510        C511   1.358       .  A
C510        H513   1.083       .  S
C511        C512   1.378       .  A
C511        H514   1.083       .  S
C512        C851   1.479       .  S
N515        C519   1.367       .  A
N515        C516   1.368       .  A
N515       C1178   1.458       .  S
C516        C517   1.381       .  A
C516        C991   1.480       .  S
C517        C518   1.364       .  A
C517        H520   1.083       .  S
C518        C519   1.380       .  A
C518        H521   1.083       .  S
C519        C841   1.480       .  S
N522        C526   1.363       .  A
N522        C523   1.361   1_545  A
N522        C641   1.449       .  S
C523        C524   1.379       .  A
C523       C1061   1.480       .  S
C524        C525   1.370   1_565  A
C524        H527   1.082       .  S
C525        C526   1.383       .  A
C525        H528   1.083       .  S
C526        C921   1.478       .  S
N529        C533   1.369       .  A
N529        C530   1.368   1_455  A
N529       C1138   1.459       .  S
C530        C531   1.380       .  A
C530       C1071   1.489       .  S
C531        C532   1.363   1_655  A
C531        H534   1.082       .  S
C532        C533   1.380       .  A
C532        H535   1.083       .  S
C533        C978   1.481       .  S
N536        C540   1.364       .  A
N536        C537   1.364       .  A
N536       C1271   1.453       .  S
C537        C538   1.380       .  A
C537        C968   1.482       .  S
C538        C539   1.365       .  A
C538        H541   1.082       .  S
C539        C540   1.381       .  A
C539        H542   1.083       .  S
C540       C1041   1.476       .  S
N543        C547   1.364       .  A
N543        C544   1.363       .  A
N543       C1188   1.452       .  S
C544        C545   1.380       .  A
C544       C1031   1.474       .  S
C545        C546   1.365       .  A
C545        H548   1.083       .  S
C546        C547   1.380       .  A
C546        H549   1.083       .  S
C547        C911   1.475       .  S
N550        C554   1.366       .  A
N550        C551   1.369       .  A
N550       C1231   1.453       .  S
C551        C552   1.380       .  A
C551        C781   1.479       .  S
C552        C553   1.361       .  A
C552        H555   1.083       .  S
C553        C554   1.380       .  A
C553        H556   1.083       .  S
C554       C1021   1.477       .  S
C557        C558   1.407       .  A
C557        C562   1.402       .  A
C557        F564   1.358       .  S
C558        C559   1.406       .  A
C559        C560   1.400       .  A
C559        F566   1.357       .  S
C560        C561   1.403       .  A
C560        F565   1.358       .  S
C561        C562   1.408       .  A
C562        F563   1.359       .  S
C567        C568   1.409       .  A
C567        C572   1.401       .  A
C567        F574   1.358       .  S
C568        C569   1.413       .  A
C569        C570   1.405       .  A
C569        F576   1.358       .  S
C570        C571   1.404       .  A
C570        F575   1.358       .  S
C571        C572   1.407       .  A
C572        F573   1.358       .  S
C577        C578   1.412       .  A
C577        C582   1.401       .  A
C577        F584   1.358       .  S
C578        C579   1.406       .  A
C579        C580   1.395       .  A
C579        F586   1.358       .  S
C580        C581   1.405       .  A
C580        F585   1.358       .  S
C581        C582   1.402       .  A
C582        F583   1.358       .  S
C587        C588   1.404       .  A
C587        C592   1.398       .  A
C587        F594   1.358       .  S
C588        C589   1.406       .  A
C589        C590   1.396       .  A
C589        F596   1.358       .  S
C590        C591   1.404       .  A
C590        F595   1.358       .  S
C591        C592   1.405       .  A
C592        F593   1.358       .  S
C597        C598   1.409       .  A
C597        C602   1.397       .  A
C597        F604   1.358       .  S
C598        C599   1.411       .  A
C599        C600   1.402       .  A
C599        F606   1.357       .  S
C600        C601   1.402       .  A
C600        F605   1.358       .  S
C601        C602   1.405       .  A
C602        F603   1.359       .  S
C607        C608   1.403       .  A
C607        C612   1.405       .  A
C607        F614   1.357       .  S
C608        C609   1.402       .  A
C609        C610   1.395       .  A
C609        F616   1.359       .  S
C610        C611   1.411       .  A
C610        F615   1.359       .  S
C611        C612   1.410       .  A
C612        F613   1.357       .  S
C617        C618   1.412   1_565  A
C617        C622   1.398       .  A
C617        F624   1.355       .  S
C618        C619   1.416       .  A
C619        C620   1.413       .  A
C619        F626   1.354       .  S
C620        C621   1.408       .  A
C620        F625   1.357       .  S
C621        C622   1.407   1_545  A
C622        F623   1.359       .  S
C627        C628   1.406   1_545  A
C627        C632   1.402       .  A
C627        F634   1.354       .  S
C628        C629   1.408       .  A
C629        C630   1.395       .  A
C629        F636   1.356       .  S
C630        C631   1.405   1_565  A
C630        F635   1.359       .  S
C631        C632   1.408       .  A
C632        F633   1.357       .  S
C637        C638   1.410   1_565  A
C637        C642   1.395       .  A
C637        F644   1.359       .  S
C638        C639   1.412       .  A
C639        C640   1.410       .  A
C639        F646   1.357       .  S
C640        C641   1.408       .  A
C640        F645   1.355       .  S
C641        C642   1.408   1_545  A
C642        F643   1.357       .  S
C647        C648   1.406   1_565  A
C647        C652   1.401       .  A
C647        F654   1.358       .  S
C648        C649   1.406       .  A
C649        C650   1.403       .  A
C649        F656   1.358       .  S
C650        C651   1.409   1_545  A
C650        F655   1.352       .  S
C651        C652   1.407       .  A
C652        F653   1.355       .  S
C657        C658   1.404       .  A
C657        C662   1.401       .  A
C657        F664   1.358       .  S
C658        C659   1.405       .  A
C659        C660   1.401       .  A
C659        F666   1.358       .  S
C660        C661   1.406       .  A
C660        F665   1.358       .  S
C661        C662   1.409       .  A
C662        F663   1.358       .  S
C667        C668   1.415       .  A
C667        C672   1.407       .  A
C667        F674   1.358       .  S
C668        C669   1.411       .  A
C669        C670   1.398       .  A
C669        F676   1.358       .  S
C670        C671   1.405       .  A
C670        F675   1.358       .  S
C671        C672   1.404       .  A
C672        F673   1.358       .  S
C677        C678   1.408       .  A
C677        C682   1.399       .  A
C677        F684   1.358       .  S
C678        C679   1.407       .  A
C679        C680   1.397       .  A
C679        F686   1.358       .  S
C680        C681   1.403       .  A
C680        F685   1.358       .  S
C681        C682   1.404       .  A
C682        F683   1.358       .  S
C687        C688   1.412       .  A
C687        C692   1.407       .  A
C687        F694   1.357       .  S
C688        C689   1.412       .  A
C689        C690   1.399       .  A
C689        F696   1.358       .  S
C690        C691   1.404       .  A
C690        F695   1.358       .  S
C691        C692   1.405       .  A
C692        F693   1.358       .  S
C697        C698   1.404       .  A
C697        C702   1.399       .  A
C697        F704   1.357       .  S
C698        C699   1.408       .  A
C699        C700   1.399       .  A
C699        F706   1.359       .  S
C700        C701   1.405       .  A
C700        F705   1.359       .  S
C701        C702   1.404       .  A
C702        F703   1.357       .  S
C707        C708   1.404       .  A
C707        C712   1.401       .  A
C707        F714   1.358       .  S
C708        C709   1.407       .  A
C709        C710   1.396       .  A
C709        F716   1.358       .  S
C710        C711   1.403       .  A
C710        F715   1.358       .  S
C711        C712   1.407       .  A
C712        F713   1.358       .  S
C717        C718   1.404       .  A
C717        C722   1.400       .  A
C717        F724   1.358       .  S
C718        C719   1.404       .  A
C719        C720   1.404       .  A
C719        F726   1.357       .  S
C720        C721   1.405       .  A
C720        F725   1.357       .  S
C721        C722   1.408       .  A
C722        F723   1.359       .  S
C727        C728   1.412       .  A
C727        C732   1.401       .  A
C727        F734   1.358       .  S
C728        C729   1.409       .  A
C729        C730   1.404       .  A
C729        F736   1.358       .  S
C730        C731   1.409       .  A
C730        F735   1.358       .  S
C731        C732   1.403       .  A
C732        F733   1.358       .  S
C737        C738   1.406       .  A
C737        C742   1.403       .  A
C737        F744   1.357       .  S
C738        C739   1.403       .  A
C739        C740   1.403       .  A
C739        F746   1.358       .  S
C740        C741   1.412       .  A
C740        F745   1.358       .  S
C741        C742   1.406       .  A
C742        F743   1.357       .  S
C747        C748   1.412       .  A
C747        C752   1.396       .  A
C747        F754   1.358       .  S
C748        C749   1.417       .  A
C749        C750   1.406       .  A
C749        F756   1.357       .  S
C750        C751   1.401       .  A
C750        F755   1.357       .  S
C751        C752   1.402       .  A
C752        F753   1.359       .  S
C757        C758   1.406       .  A
C757        C762   1.399       .  A
C757        F764   1.358       .  S
C758        C759   1.405       .  A
C759        C760   1.405       .  A
C759        F766   1.357       .  S
C760        C761   1.408       .  A
C760        F765   1.357       .  S
C761        C762   1.410       .  A
C762        F763   1.358       .  S
C767        C768   1.404       .  A
C767        C772   1.398       .  A
C767        F774   1.358       .  S
C768        C769   1.404       .  A
C769        C770   1.399       .  A
C769        F776   1.357       .  S
C770        C771   1.408       .  A
C770        F775   1.358       .  S
C771        C772   1.407       .  A
C772        F773   1.358       .  S
C777        C778   1.411       .  A
C777        C782   1.398       .  A
C777        F784   1.358       .  S
C778        C779   1.410       .  A
C779        C780   1.407       .  A
C779        F786   1.358       .  S
C780        C781   1.410       .  A
C780        F785   1.358       .  S
C781        C782   1.404       .  A
C782        F783   1.356       .  S
C787        C788   1.408       .  A
C787        C792   1.406       .  A
C787        F794   1.358       .  S
C788        C789   1.406       .  A
C789        C790   1.398       .  A
C789        F796   1.357       .  S
C790        C791   1.408       .  A
C790        F795   1.358       .  S
C791        C792   1.409       .  A
C792        F793   1.358       .  S
C797        C798   1.408       .  A
C797        C802   1.399       .  A
C797        F804   1.358       .  S
C798        C799   1.405       .  A
C799        C800   1.405       .  A
C799        F806   1.358       .  S
C800        C801   1.411       .  A
C800        F805   1.358       .  S
C801        C802   1.406       .  A
C802        F803   1.358       .  S
C807        C808   1.407       .  A
C807        C812   1.404       .  A
C807        F814   1.358       .  S
C808        C809   1.409       .  A
C809        C810   1.396       .  A
C809        F816   1.359       .  S
C810        C811   1.405       .  A
C810        F815   1.358       .  S
C811        C812   1.407       .  A
C812        F813   1.358       .  S
C817        C818   1.405       .  A
C817        C822   1.407       .  A
C817        F824   1.358       .  S
C818        C819   1.410       .  A
C819        C820   1.405       .  A
C819        F826   1.358       .  S
C820        C821   1.407       .  A
C820        F825   1.358       .  S
C821        C822   1.412       .  A
C822        F823   1.358       .  S
C827        C828   1.407       .  A
C827        C832   1.404       .  A
C827        F834   1.358       .  S
C828        C829   1.406       .  A
C829        C830   1.400       .  A
C829        F836   1.358       .  S
C830        C831   1.406       .  A
C830        F835   1.358       .  S
C831        C832   1.409       .  A
C832        F833   1.358       .  S
C837        C838   1.410       .  A
C837        C842   1.404       .  A
C837        F844   1.358       .  S
C838        C839   1.407       .  A
C839        C840   1.401       .  A
C839        F846   1.358       .  S
C840        C841   1.407       .  A
C840        F845   1.358       .  S
C841        C842   1.405       .  A
C842        F843   1.358       .  S
C847        C848   1.408       .  A
C847        C852   1.403       .  A
C847        F854   1.358       .  S
C848        C849   1.404       .  A
C849        C850   1.399       .  A
C849        F856   1.358       .  S
C850        C851   1.409       .  A
C850        F855   1.358       .  S
C851        C852   1.405       .  A
C852        F853   1.358       .  S
C857        C858   1.406       .  A
C857        C862   1.402       .  A
C857        F864   1.358       .  S
C858        C859   1.402       .  A
C859        C860   1.393       .  A
C859        F866   1.358       .  S
C860        C861   1.408       .  A
C860        F865   1.358       .  S
C861        C862   1.408       .  A
C862        F863   1.358       .  S
C867        C868   1.403       .  A
C867        C872   1.400       .  A
C867        F874   1.357       .  S
C868        C869   1.407       .  A
C869        C870   1.399       .  A
C869        F876   1.359       .  S
C870        C871   1.405       .  A
C870        F875   1.358       .  S
C871        C872   1.404       .  A
C872        F873   1.357       .  S
C877        C878   1.407       .  A
C877        C882   1.401       .  A
C877        F884   1.358       .  S
C878        C879   1.404       .  A
C879        C880   1.394       .  A
C879        F886   1.358       .  S
C880        C881   1.406       .  A
C880        F885   1.358       .  S
C881        C882   1.405       .  A
C882        F883   1.358       .  S
C887        C888   1.406       .  A
C887        C892   1.396       .  A
C887        F894   1.359       .  S
C888        C889   1.404       .  A
C889        C890   1.397       .  A
C889        F896   1.358       .  S
C890        C891   1.405       .  A
C890        F895   1.358       .  S
C891        C892   1.404       .  A
C892        F893   1.358       .  S
C897        C898   1.406       .  A
C897        C902   1.398       .  A
C897        F904   1.358       .  S
C898        C899   1.404       .  A
C899        C900   1.405       .  A
C899        F906   1.358       .  S
C900        C901   1.410       .  A
C900        F905   1.357       .  S
C901        C902   1.408       .  A
C902        F903   1.358       .  S
C907        C908   1.409       .  A
C907        C912   1.398       .  A
C907        F914   1.358       .  S
C908        C909   1.416       .  A
C909        C910   1.401       .  A
C909        F916   1.358       .  S
C910        C911   1.400       .  A
C910        F915   1.358       .  S
C911        C912   1.405       .  A
C912        F913   1.358       .  S
C917        C918   1.413       .  A
C917        C922   1.407       .  A
C917        F924   1.358       .  S
C918        C919   1.410       .  A
C919        C920   1.396       .  A
C919        F926   1.358       .  S
C920        C921   1.403       .  A
C920        F925   1.358       .  S
C921        C922   1.404       .  A
C922        F923   1.358       .  S
C927        C928   1.407       .  A
C927        C932   1.404       .  A
C927        F934   1.358       .  S
C928        C929   1.406       .  A
C929        C930   1.402       .  A
C929        F936   1.358       .  S
C930        C931   1.408       .  A
C930        F935   1.358       .  S
C931        C932   1.409       .  A
C932        F933   1.358       .  S
C937        C938   1.409       .  A
C937        C942   1.397       .  A
C937        F944   1.358       .  S
C938        C939   1.410       .  A
C939        C940   1.402       .  A
C939        F946   1.358       .  S
C940        C941   1.404       .  A
C940        F945   1.358       .  S
C941        C942   1.405       .  A
C942        F943   1.358       .  S
C947        C948   1.407       .  A
C947        C952   1.400       .  A
C947        F954   1.358       .  S
C948        C949   1.407       .  A
C949        C950   1.399       .  A
C949        F956   1.358       .  S
C950        C951   1.405       .  A
C950        F955   1.358       .  S
C951        C952   1.404       .  A
C952        F953   1.358       .  S
C957        C958   1.407       .  A
C957        C962   1.396       .  A
C957        F964   1.358       .  S
C958        C959   1.413       .  A
C959        C960   1.406       .  A
C959        F966   1.357       .  S
C960        C961   1.405       .  A
C960        F965   1.357       .  S
C961        C962   1.407       .  A
C962        F963   1.358       .  S
C967        C968   1.405       .  A
C967        C972   1.406       .  A
C967        F974   1.358       .  S
C968        C969   1.404       .  A
C969        C970   1.398       .  A
C969        F976   1.358       .  S
C970        C971   1.410       .  A
C970        F975   1.358       .  S
C971        C972   1.412       .  A
C972        F973   1.357       .  S
C977        C978   1.404       .  A
C977        C982   1.401       .  A
C977        F984   1.359       .  S
C978        C979   1.403       .  A
C979        C980   1.406       .  A
C979        F986   1.357       .  S
C980        C981   1.414       .  A
C980        F985   1.357       .  S
C981        C982   1.415       .  A
C982        F983   1.358       .  S
C987        C988   1.410       .  A
C987        C992   1.402       .  A
C987        F994   1.358       .  S
C988        C989   1.407       .  A
C989        C990   1.401       .  A
C989        F996   1.358       .  S
C990        C991   1.407       .  A
C990        F995   1.358       .  S
C991        C992   1.406       .  A
C992        F993   1.358       .  S
C997        C998   1.413       .  A
C997       C1002   1.409       .  A
C997       F1004   1.357       .  S
C998        C999   1.413       .  A
C999       C1000   1.404       .  A
C999       F1006   1.358       .  S
C1000      C1001   1.406       .  A
C1000      F1005   1.359       .  S
C1001      C1002   1.405       .  A
C1002      F1003   1.357       .  S
C1007      C1008   1.406       .  A
C1007      C1012   1.405       .  A
C1007      F1014   1.358       .  S
C1008      C1009   1.401       .  A
C1009      C1010   1.395       .  A
C1009      F1016   1.358       .  S
C1010      C1011   1.405       .  A
C1010      F1015   1.358       .  S
C1011      C1012   1.407       .  A
C1012      F1013   1.358       .  S
C1017      C1018   1.416       .  A
C1017      C1022   1.404       .  A
C1017      F1024   1.357       .  S
C1018      C1019   1.411       .  A
C1019      C1020   1.400       .  A
C1019      F1026   1.358       .  S
C1020      C1021   1.405       .  A
C1020      F1025   1.358       .  S
C1021      C1022   1.402       .  A
C1022      F1023   1.358       .  S
C1027      C1028   1.409       .  A
C1027      C1032   1.402       .  A
C1027      F1034   1.357       .  S
C1028      C1029   1.412       .  A
C1029      C1030   1.397       .  A
C1029      F1036   1.358       .  S
C1030      C1031   1.403       .  A
C1030      F1035   1.358       .  S
C1031      C1032   1.404       .  A
C1032      F1033   1.358       .  S
C1037      C1038   1.404       .  A
C1037      C1042   1.400       .  A
C1037      F1044   1.358       .  S
C1038      C1039   1.404       .  A
C1039      C1040   1.401       .  A
C1039      F1046   1.358       .  S
C1040      C1041   1.406       .  A
C1040      F1045   1.357       .  S
C1041      C1042   1.408       .  A
C1042      F1043   1.358       .  S
C1047      C1048   1.408       .  A
C1047      C1052   1.400       .  A
C1047      F1054   1.358       .  S
C1048      C1049   1.409       .  A
C1049      C1050   1.403       .  A
C1049      F1056   1.358       .  S
C1050      C1051   1.408       .  A
C1050      F1055   1.358       .  S
C1051      C1052   1.406       .  A
C1052      F1053   1.358       .  S
C1057      C1058   1.407       .  A
C1057      C1062   1.402       .  A
C1057      F1064   1.357       .  S
C1058      C1059   1.410       .  A
C1059      C1060   1.401       .  A
C1059      F1066   1.358       .  S
C1060      C1061   1.404       .  A
C1060      F1065   1.358       .  S
C1061      C1062   1.406       .  A
C1062      F1063   1.357       .  S
C1067      C1068   1.411       .  A
C1067      C1072   1.406       .  A
C1067      F1074   1.358       .  S
C1068      C1069   1.404       .  A
C1069      C1070   1.399       .  A
C1069      F1076   1.358       .  S
C1070      C1071   1.409       .  A
C1070      F1075   1.358       .  S
C1071      C1072   1.406       .  A
C1072      F1073   1.357       .  S
C1077      C1078   1.407       .  A
C1077      C1082   1.398       .  A
C1077      F1084   1.359       .  S
C1078      C1079   1.408   1_554  A
C1079      C1080   1.407       .  A
C1079      F1086   1.357       .  S
C1080      C1081   1.410   1_556  A
C1080      F1085   1.354       .  S
C1081      C1082   1.414       .  A
C1082      F1083   1.357       .  S
C1087      C1088   1.413   1_556  A
C1087      C1092   1.405       .  A
C1087      F1094   1.351       .  S
C1088      C1089   1.411       .  A
C1089      C1090   1.395       .  A
C1089      F1096   1.355       .  S
C1090      C1091   1.403       .  A
C1090      F1095   1.358       .  S
C1091      C1092   1.404   1_554  A
C1092      F1093   1.358       .  S
C1097      C1098   1.404       .  A
C1097      C1102   1.408       .  A
C1097      F1104   1.358       .  S
C1098      C1099   1.401   1_556  A
C1099      C1100   1.395       .  A
C1099      F1106   1.359       .  S
C1100      C1101   1.416   1_554  A
C1100      F1105   1.355       .  S
C1101      C1102   1.416       .  A
C1102      F1103   1.352       .  S
C1107      C1108   1.407   1_556  A
C1107      C1112   1.405       .  A
C1107      F1114   1.357       .  S
C1108      C1109   1.404       .  A
C1109      C1110   1.393       .  A
C1109      F1116   1.359       .  S
C1110      C1111   1.411       .  A
C1110      F1115   1.357       .  S
C1111      C1112   1.409   1_554  A
C1112      F1113   1.354       .  S
C1117      C1118   1.410       .  A
C1117      C1122   1.409       .  A
C1117      F1124   1.357       .  S
C1118      C1119   1.411   1_455  A
C1119      C1120   1.401       .  A
C1119      F1126   1.358       .  S
C1120      C1121   1.409       .  A
C1120      F1125   1.357       .  S
C1121      C1122   1.409   1_655  A
C1122      F1123   1.354       .  S
C1127      C1128   1.405       .  A
C1127      C1132   1.407       .  A
C1127      F1134   1.358       .  S
C1128      C1129   1.405   1_455  A
C1129      C1130   1.397       .  A
C1129      F1136   1.359       .  S
C1130      C1131   1.413       .  A
C1130      F1135   1.356       .  S
C1131      C1132   1.413   1_655  A
C1132      F1133   1.354       .  S
C1137      C1138   1.415   1_655  A
C1137      C1142   1.397       .  A
C1137      F1144   1.356       .  S
C1138      C1139   1.415       .  A
C1139      C1140   1.411       .  A
C1139      F1146   1.355       .  S
C1140      C1141   1.406       .  A
C1140      F1145   1.357       .  S
C1141      C1142   1.403   1_455  A
C1142      F1143   1.359       .  S
C1147      C1148   1.411       .  A
C1147      C1152   1.399       .  A
C1147      F1154   1.357       .  S
C1148      C1149   1.409   1_655  A
C1149      C1150   1.408       .  A
C1149      F1156   1.356       .  S
C1150      C1151   1.409       .  A
C1150      F1155   1.357       .  S
C1151      C1152   1.408   1_455  A
C1152      F1153   1.358       .  S
C1157      C1158   1.410       .  A
C1157      C1162   1.407       .  A
C1157      F1164   1.354       .  S
C1158      C1159   1.408       .  A
C1159      C1160   1.406       .  A
C1159      F1166   1.356       .  S
C1160      C1161   1.414       .  A
C1160      F1165   1.358       .  S
C1161      C1162   1.410       .  A
C1162      F1163   1.357       .  S
C1167      C1168   1.406       .  A
C1167      C1172   1.403       .  A
C1167      F1174   1.351       .  S
C1168      C1169   1.409       .  A
C1169      C1170   1.407       .  A
C1169      F1176   1.357       .  S
C1170      C1171   1.412       .  A
C1170      F1175   1.358       .  S
C1171      C1172   1.410       .  A
C1172      F1173   1.358       .  S
C1177      C1178   1.411       .  A
C1177      C1182   1.409       .  A
C1177      F1184   1.351       .  S
C1178      C1179   1.411       .  A
C1179      C1180   1.404       .  A
C1179      F1186   1.357       .  S
C1180      C1181   1.410       .  A
C1180      F1185   1.358       .  S
C1181      C1182   1.409       .  A
C1182      F1183   1.357       .  S
C1187      C1188   1.411       .  A
C1187      C1192   1.401       .  A
C1187      F1194   1.354       .  S
C1188      C1189   1.408       .  A
C1189      C1190   1.402       .  A
C1189      F1196   1.355       .  S
C1190      C1191   1.410       .  A
C1190      F1195   1.358       .  S
C1191      C1192   1.407       .  A
C1192      F1193   1.358       .  S
C1197      C1198   1.407       .  A
C1197      C1202   1.408       .  A
C1197      F1204   1.357       .  S
C1198      C1199   1.405       .  A
C1199      C1200   1.399       .  A
C1199      F1206   1.359       .  S
C1200      C1201   1.414       .  A
C1200      F1205   1.356       .  S
C1201      C1202   1.413       .  A
C1202      F1203   1.354       .  S
C1207      C1208   1.403       .  A
C1207      C1212   1.397       .  A
C1207      F1214   1.358       .  S
C1208      C1209   1.406       .  A
C1209      C1210   1.409       .  A
C1209      F1216   1.357       .  S
C1210      C1211   1.415       .  A
C1210      F1215   1.352       .  S
C1211      C1212   1.416       .  A
C1212      F1213   1.355       .  S
C1217      C1218   1.405       .  A
C1217      C1222   1.407       .  A
C1217      F1224   1.358       .  S
C1218      C1219   1.402       .  A
C1219      C1220   1.398       .  A
C1219      F1226   1.358       .  S
C1220      C1221   1.416       .  A
C1220      F1225   1.355       .  S
C1221      C1222   1.415       .  A
C1222      F1223   1.350       .  S
C1227      C1228   1.412       .  A
C1227      C1232   1.407       .  A
C1227      F1234   1.358       .  S
C1228      C1229   1.413       .  A
C1229      C1230   1.406       .  A
C1229      F1236   1.358       .  S
C1230      C1231   1.407       .  A
C1230      F1235   1.356       .  S
C1231      C1232   1.407       .  A
C1232      F1233   1.352       .  S
C1237      C1238   1.414       .  A
C1237      C1242   1.416       .  A
C1237      F1244   1.352       .  S
C1238      C1239   1.412       .  A
C1239      C1240   1.399       .  A
C1239      F1246   1.352       .  S
C1240      C1241   1.405       .  A
C1240      F1245   1.358       .  S
C1241      C1242   1.412       .  A
C1242      F1243   1.357       .  S
C1247      C1248   1.411       .  A
C1247      C1252   1.408       .  A
C1247      F1254   1.354       .  S
C1248      C1249   1.412       .  A
C1249      C1250   1.400       .  A
C1249      F1256   1.355       .  S
C1250      C1251   1.407       .  A
C1250      F1255   1.358       .  S
C1251      C1252   1.410       .  A
C1252      F1253   1.358       .  S
C1257      C1258   1.413       .  A
C1257      C1262   1.410       .  A
C1257      F1264   1.353       .  S
C1258      C1259   1.409       .  A
C1259      C1260   1.407       .  A
C1259      F1266   1.354       .  S
C1260      C1261   1.411       .  A
C1260      F1265   1.358       .  S
C1261      C1262   1.409       .  A
C1262      F1263   1.358       .  S
C1267      C1268   1.410       .  A
C1267      C1272   1.408       .  A
C1267      F1274   1.357       .  S
C1268      C1269   1.410       .  A
C1269      C1270   1.398       .  A
C1269      F1276   1.358       .  S
C1270      C1271   1.409       .  A
C1270      F1275   1.357       .  S
C1271      C1272   1.410       .  A
C1272      F1273   1.353       .  S
