geometry optimzed in LAMMPS
_audit_creation_date              2020-11-30 
_audit_creation_method            'lammps2cif' 
_symmetry_space_group_name_H-M    'P1' 
_symmetry_Int_Tables_number       1 
_symmetry_cell_setting            triclinic 
loop_ 
_symmetry_equiv_pos_as_xyz 
  x,y,z 
_cell_length_a                    28.79481084 
_cell_length_b                    28.887621371320254 
_cell_length_c                    28.77568057084497 
_cell_angle_alpha                 89.78310755369307 
_cell_angle_beta                  90.02446427196746 
_cell_angle_gamma                 90.30094436906218 
loop_ 
_atom_site_label 
_atom_site_type_symbol 
_atom_site_fract_x 
_atom_site_fract_y 
_atom_site_fract_z 
_atom_site_charge 
O1          O  0.58734021  0.73211409  0.67393450    -0.77100
C2          C  0.71821666  0.72556183  0.58170497     0.84000
O3          O  0.55799292  0.63567163  0.55104905    -0.78200
O4          O  0.71121524  0.57925208  0.58454702    -0.79700
O5          O  0.68348609  0.59496284  0.73478528    -0.79500
O6          O  0.59887039  0.69002871  0.73772144    -0.78100
Zn7        Zn  0.62633764  0.70383119  0.62468255     1.55700
O8          O  0.74133307  0.60541187  0.68444010    -0.79500
Cd9        Cd  0.62927705  0.63287425  0.70604287     1.59700
Cd10       Cd  0.59740892  0.59519621  0.60043282     1.59600
O11         O  0.57853323  0.58658938  0.71534423    -0.79500
O12         O  0.63780266  0.64014892  0.63841719    -1.90000
Cd13       Cd  0.70476665  0.63170579  0.62865860     1.59900
O14         O  0.55293234  0.55808864  0.64806123    -0.79500
O15         O  0.73331920  0.68538215  0.59147600    -0.78100
C16         C  0.55810740  0.68004365  0.54746470     0.84400
C17         C  0.57773472  0.72231163  0.71596055     0.84100
O18         O  0.68061814  0.74098227  0.59895848    -0.77100
C19         C  0.72427568  0.58574802  0.72028864     0.84900
O20         O  0.58332473  0.70487394  0.57337656    -0.77200
C21         C  0.55235952  0.55959561  0.69271091     0.85000
C22         C  0.68749160  0.54940878  0.56279994     0.85300
O23         O  0.64294707  0.54802115  0.56514809    -0.79600
O24         O  0.81909366  0.58422227  0.27976301    -0.77100
C25         C  0.92536810  0.70715059  0.28442213     0.84000
O26         O  0.95194000  0.55483690  0.36993043    -0.78200
O27         O  0.91620899  0.70242811  0.43213575    -0.79700
O28         O  0.77200637  0.68098427  0.41960259    -0.79500
O29         O  0.75944069  0.59500624  0.32756969    -0.78100
Zn30       Zn  0.87209505  0.62131255  0.30510862     1.55700
O31         O  0.82028002  0.73784524  0.39934490    -0.79500
Cd32       Cd  0.79617022  0.62500295  0.38167087     1.59700
Cd33       Cd  0.90283416  0.59057111  0.41284272     1.59600
O34         O  0.79002553  0.57343095  0.42742617    -0.79500
O35         O  0.86292261  0.63163329  0.36979052    -1.90000
Cd36       Cd  0.87483598  0.69765410  0.37724432     1.59900
O37         O  0.85767109  0.54287432  0.44889143    -0.79500
O38         O  0.91639678  0.72195770  0.32501371    -0.78100
C39         C  0.95110518  0.55422839  0.32535685     0.84400
C40         C  0.77828921  0.57381990  0.29368378     0.84100
O41         O  0.90299079  0.67307611  0.26712965    -0.77100
C42         C  0.78704878  0.72237556  0.42422603     0.84900
O43         O  0.92178302  0.57749398  0.30264946    -0.77200
C44         C  0.81312864  0.54417700  0.45052829     0.85000
C45         C  0.93876939  0.67907617  0.46165709     0.85300
O46         O  0.93808904  0.63463925  0.46169414    -0.79600
O47         O  0.92904819  0.48137678  0.16877618    -0.77100
C48         C  0.82720043  0.47298015  0.04279423     0.84000
O49         O  0.79946910  0.38498232  0.20292877    -0.78200
O50         O  0.83149411  0.32967306  0.04859063    -0.79700
O51         O  0.98041125  0.33962698  0.07911763    -0.79500
O52         O  0.98980648  0.43484071  0.15981470    -0.78100
Zn53       Zn  0.87517664  0.45298405  0.13392852     1.55700
O54         O  0.93214887  0.35471193  0.02069142    -0.79500
Cd55       Cd  0.95391766  0.37885174  0.13221716     1.59700
Cd56       Cd  0.84722216  0.34395395  0.16290574     1.59600
O57         O  0.96154580  0.33257741  0.18321016    -0.79500
O58         O  0.88663200  0.38884987  0.12331544    -1.90000
Cd59       Cd  0.87667267  0.38127713  0.05633526     1.59900
O60         O  0.89326960  0.30484785  0.20733779    -0.79500
O61         O  0.83981619  0.43402311  0.02693376    -0.78100
C62         C  0.79870904  0.42941318  0.20440319     0.84400
C63         C  0.97065596  0.46974046  0.17870034     0.84100
O64         O  0.84347578  0.48871044  0.08090147    -0.77100
C65         C  0.96553136  0.33176210  0.03826611     0.84900
O66         O  0.82614155  0.45354187  0.17981181    -0.77200
C67         C  0.93792013  0.30566349  0.20872242     0.85000
C68         C  0.80874242  0.30009196  0.07178177     0.85300
O69         O  0.81055077  0.29835412  0.11638158    -0.79600
C70         C  0.74724133  0.56523818  0.99180438     0.04500
C71         C  0.78508656  0.54463904  0.01529338    -0.11600
C72         C  0.78817868  0.49654274  0.01897695     0.02000
C73         C  0.75218934  0.46914151  0.00073812    -0.10100
C74         C  0.71406432  0.48851874  0.97727075     0.04500
C75         C  0.71194154  0.53689128  0.97256542    -0.09600
H76         H  0.81323229  0.56562147  0.02881023     0.10100
H77         H  0.75455308  0.43174713  0.00343575     0.07700
H78         H  0.68425841  0.55227954  0.95229170     0.07500
C79         C  0.06068227  0.50891396  0.26816417     0.04500
C80         C  0.04168331  0.49201980  0.22616044    -0.11600
C81         C  0.99356173  0.49281904  0.21874082     0.02000
C82         C  0.96507715  0.51025246  0.25394374    -0.10100
C83         C  0.98316023  0.52713135  0.29602266     0.04500
C84         C  0.03120069  0.52555401  0.30344221    -0.09600
H85         H  0.06420099  0.47750464  0.19987648     0.10100
H86         H  0.92775835  0.51056454  0.24878895     0.07700
H87         H  0.04582186  0.53967538  0.33510839     0.07500
O88         O  0.59133509  0.27225496  0.82445278    -0.77100
C89         C  0.71725784  0.28491317  0.92834097     0.84000
O90         O  0.55640223  0.36271640  0.95439885    -0.78200
O91         O  0.71033764  0.42925372  0.92395601    -0.79700
O92         O  0.68278594  0.41771379  0.77405227    -0.79500
O93         O  0.59668907  0.32318129  0.76646456    -0.78100
Zn94       Zn  0.62708242  0.30109827  0.87766800     1.55700
O95         O  0.74026827  0.40461514  0.82397419    -0.79500
Cd96       Cd  0.62915825  0.37752738  0.80138408     1.59700
Cd97       Cd  0.59680124  0.40775862  0.90975517     1.59600
O98         O  0.57915448  0.42397842  0.79585427    -0.79500
O99         O  0.63722980  0.36627568  0.86851707    -1.90000
Cd100      Cd  0.70373426  0.37712647  0.87913322     1.59900
O101        O  0.55235015  0.44679062  0.86480363    -0.79500
O102        O  0.73232881  0.32477583  0.91685765    -0.78100
C103        C  0.55469312  0.31825273  0.95259068     0.84400
C104        C  0.57877189  0.28672349  0.78443483     0.84100
O105        O  0.68051841  0.26761892  0.91032509    -0.77100
C106        C  0.72347616  0.42643050  0.78932681     0.84900
O107        O  0.58001769  0.29596051  0.92486101    -0.77200
C108        C  0.55237335  0.44833431  0.82021676     0.85000
C109        C  0.68617078  0.45649132  0.94809782     0.85300
O110        O  0.64152628  0.45470466  0.94786362    -0.79600
O111        O  0.48008178  0.15818775  0.93018566    -0.77100
C112        C  0.47049990  0.02903958  0.82808349     0.84000
O113        O  0.39015122  0.19035658  0.80104029    -0.78200
O114        O  0.32717102  0.03578110  0.82760431    -0.79700
O115        O  0.33940938  0.06391311  0.98495677    -0.79500
O116        O  0.43134841  0.15050876  0.98967662    -0.78100
Zn117      Zn  0.45241590  0.11986952  0.87756930     1.55700
O118        O  0.34381367  0.00788326  0.93199039    -0.79500
Cd119      Cd  0.37695055  0.11761685  0.95509466     1.59700
Cd120      Cd  0.34546351  0.15017639  0.84690295     1.59600
O121        O  0.32942549  0.16695701  0.96201674    -0.79500
O122        O  0.38719252  0.10874012  0.88737104    -1.90000
Cd123      Cd  0.37651882  0.04177265  0.87641144     1.59900
O124        O  0.30616313  0.19443523  0.89337265    -0.79500
O125        O  0.43070555  0.01276460  0.83908682    -0.78100
C126        C  0.43484196  0.19082766  0.80061580     0.84400
C127        C  0.46638445  0.17006938  0.97063685     0.84100
O128        O  0.48661144  0.06586085  0.84689147    -0.77100
C129        C  0.32698028  0.02443855  0.96951928     0.84900
O130        O  0.45775138  0.16531218  0.82794855    -0.77200
C131        C  0.30474723  0.19411815  0.93814188     0.85000
C132        C  0.30059623  0.06073147  0.80321239     0.85300
O133        O  0.30069591  0.10519437  0.80639832    -0.79600
C134        C  0.49378297  0.26615661  0.05761439     0.04500
C135        C  0.51471399  0.29951937  0.02859037    -0.11600
C136        C  0.52401022  0.28892240  0.98212768     0.02000
C137        C  0.50988871  0.24530851  0.96462771    -0.10100
C138        C  0.48740167  0.21207683  0.99267144     0.04500
C139        C  0.47957433  0.22298778  0.03946120    -0.09600
H140        H  0.52673761  0.33206030  0.04299019     0.10100
H141        H  0.51599849  0.23748444  0.92833481     0.07700
H142        H  0.46213184  0.19814734  0.06183011     0.07500
C143        C  0.48324956  0.25957382  0.69672547     0.04500
C144        C  0.52514042  0.27582405  0.71597543    -0.11600
C145        C  0.53781870  0.26440577  0.76157809     0.02000
C146        C  0.50678802  0.23740674  0.78819392    -0.10100
C147        C  0.46363235  0.22185067  0.77035802     0.04500
C148        C  0.45223002  0.23275477  0.72406047    -0.09600
H149        H  0.54820200  0.29709665  0.69500812     0.10100
H150        H  0.51558559  0.22963655  0.82400114     0.07700
H151        H  0.42018555  0.21982076  0.70912860     0.07500
C152        C  0.56680014  0.99848510  0.74320350     0.04500
C153        C  0.54415666  0.01100842  0.78462285    -0.11600
C154        C  0.49556577  0.00856199  0.78777477     0.02000
C155        C  0.47014854  0.99333364  0.74844440    -0.10100
C156        C  0.49285589  0.98126920  0.70662342     0.04500
C157        C  0.54114668  0.98395039  0.70463511    -0.09600
H158        H  0.56418916  0.02406938  0.81368422     0.10100
H159        H  0.43257780  0.99158914  0.75008856     0.07700
H160        H  0.55899487  0.97438880  0.67292080     0.07500
C161        C  0.92466938  0.98787980  0.25003340     0.04500
C162        C  0.94839973  0.97070918  0.28896282    -0.11600
C163        C  0.99667192  0.97565009  0.29243526     0.02000
C164        C  0.02120892  0.99540060  0.25491045    -0.10100
C165        C  0.99801109  0.01110502  0.21477201     0.04500
C166        C  0.94943017  0.00860505  0.21324670    -0.09600
H167        H  0.92913368  0.95401791  0.31679740     0.10100
H168        H  0.05872380  0.99817937  0.25674930     0.07700
H169        H  0.93102363  0.02167104  0.18312682     0.07500
C170        C  0.25325810  0.29806578  0.00038792     0.04500
C171        C  0.22817026  0.27536558  0.03629793    -0.11600
C172        C  0.22624924  0.22681645  0.03780653     0.02000
C173        C  0.24886595  0.20174368  0.00263613    -0.10100
C174        C  0.27351239  0.22352138  0.96642260     0.04500
C175        C  0.27599705  0.27190489  0.96584614    -0.09600
H176        H  0.21016698  0.29521067  0.06249598     0.10100
H177        H  0.24748489  0.16418854  0.00363256     0.07700
H178        H  0.29705226  0.28916709  0.93971211     0.07500
C179        C  0.24447983  0.92882017  0.00820645     0.04500
C180        C  0.28471793  0.95151707  0.99198128    -0.11600
C181        C  0.28772497  0.99987713  0.99258095     0.02000
C182        C  0.24939713  0.02528550  0.00926733    -0.10100
C183        C  0.20865314  0.00266934  0.02495415     0.04500
C184        C  0.20672889  0.95439191  0.02444820    -0.09600
H185        H  0.31309024  0.93163257  0.97765900     0.10100
H186        H  0.25102849  0.06278065  0.00955042     0.07700
H187        H  0.17586562  0.93661426  0.03694513     0.07500
C188        C  0.29682710  0.00758413  0.26472715     0.04500
C189        C  0.27337225  0.96877030  0.28387831    -0.11600
C190        C  0.22483005  0.96649574  0.28232048     0.02000
C191        C  0.20069760  0.00264744  0.26033802    -0.10100
C192        C  0.22350283  0.04095902  0.24019163     0.04500
C193        C  0.27178794  0.04382100  0.24356011    -0.09600
H194        H  0.29258572  0.94212511  0.30205871     0.10100
H195        H  0.16306906  0.00076705  0.25863416     0.07700
H196        H  0.29007929  0.07247419  0.22724371     0.07500
C197        C  0.98418485  0.24460002  0.94305972     0.04500
C198        C  0.00364864  0.20740608  0.96740848    -0.11600
C199        C  0.01131311  0.21094912  0.01509652     0.02000
C200        C  0.00144247  0.25298173  0.03775251    -0.10100
C201        C  0.98283718  0.29085304  0.01308901     0.04500
C202        C  0.97333123  0.28574721  0.96579905    -0.09600
H203        H  0.01202791  0.17562576  0.94939846     0.10100
H204        H  0.00760403  0.25589105  0.07479464     0.07700
H205        H  0.95780839  0.31395790  0.94639869     0.07500
C206        C  0.99369379  0.24346815  0.31153817     0.04500
C207        C  0.03240187  0.22317446  0.28911107    -0.11600
C208        C  0.03820654  0.22819862  0.24084331     0.02000
C209        C  0.00547988  0.25422838  0.21599834    -0.10100
C210        C  0.96631495  0.27373355  0.23733131     0.04500
C211        C  0.96017062  0.26762406  0.28519015    -0.09600
H212        H  0.05611290  0.20156346  0.30863217     0.10100
H213        H  0.00945443  0.25752888  0.17860073     0.07700
H214        H  0.93086128  0.28366070  0.30230252     0.07500
O215        O  0.06696897  0.02244501  0.17096065    -0.77100
C216        C  0.17070430  0.02954834  0.04637842     0.84000
O217        O  0.19918838  0.11426387  0.20433381    -0.78200
O218        O  0.16741117  0.17325844  0.04606692    -0.79700
O219        O  0.02161982  0.16729024  0.08357288    -0.79500
O220        O  0.00796351  0.06963225  0.15706978    -0.78100
Zn221      Zn  0.12124903  0.05037246  0.13627182     1.55700
O222        O  0.06461487  0.14867376  0.02214157    -0.79500
Cd223      Cd  0.04711714  0.12582580  0.13533715     1.59700
Cd224      Cd  0.15521144  0.15826886  0.16215079     1.59600
O225        O  0.04107807  0.16717298  0.19031019    -0.79500
O226        O  0.11347558  0.11473814  0.12421701    -1.90000
Cd227      Cd  0.12192013  0.12218185  0.05654952     1.59900
O228        O  0.11006497  0.19918339  0.20617065    -0.79500
O229        O  0.16005927  0.06864562  0.02897913    -0.78100
C230        C  0.19606993  0.06992817  0.20776643     0.84400
C231        C  0.02506066  0.03459846  0.17772966     0.84100
O232        O  0.15257663  0.01497924  0.08421447    -0.77100
C233        C  0.03283757  0.17272100  0.04117726     0.84900
O234        O  0.16781571  0.04705867  0.18334044    -0.77200
C235        C  0.06588532  0.19569978  0.21256676     0.85000
C236        C  0.19405267  0.20008871  0.06826699     0.85300
O237        O  0.19486943  0.20068606  0.11309049    -0.79600
O238        O  0.47822809  0.83508121  0.56421661    -0.77100
C239        C  0.46659637  0.96138178  0.66700038     0.84000
O240        O  0.38597451  0.80899684  0.69755406    -0.78200
O241        O  0.31982653  0.96094684  0.65736801    -0.79700
O242        O  0.33786797  0.92242615  0.51051068    -0.79500
O243        O  0.42911731  0.83882443  0.50499307    -0.78100
Zn244      Zn  0.44900459  0.87344336  0.61524518     1.55700
O245        O  0.35303307  0.98353624  0.55546522    -0.79500
Cd246      Cd  0.37487153  0.87004773  0.54057499     1.59700
Cd247      Cd  0.34122115  0.84573323  0.65039003     1.59600
O248        O  0.32828033  0.81940948  0.53806103    -0.79500
O249        O  0.38400751  0.88313872  0.60703870    -1.90000
Cd250      Cd  0.37448278  0.95006267  0.61557623     1.59900
O251        O  0.30126060  0.79867082  0.60778219    -0.79500
O252        O  0.42599275  0.97627931  0.65826935    -0.78100
C253        C  0.43051777  0.80763727  0.69546824     0.84400
C254        C  0.46517865  0.82182941  0.52400582     0.84100
O255        O  0.48370716  0.92718448  0.64488863    -0.77100
C256        C  0.33126131  0.96439035  0.52188054     0.84900
O257        O  0.45291250  0.83038998  0.66540156    -0.77200
C258        C  0.30176161  0.79501114  0.56324245     0.85000
C259        C  0.29464583  0.93796485  0.68519073     0.85300
O260        O  0.29713587  0.89353422  0.68808931    -0.79600
O261        O  0.06312593  0.96949140  0.34098556    -0.77100
C262        C  0.16798782  0.96235476  0.46446732     0.84000
O263        O  0.20063923  0.88978011  0.31089510    -0.78200
O264        O  0.16524313  0.81477539  0.46049318    -0.79700
O265        O  0.01911976  0.82920785  0.43410366    -0.79500
O266        O  0.00661436  0.91789457  0.35061807    -0.78100
Zn267      Zn  0.11639694  0.94412469  0.37851422     1.55700
O268        O  0.06696939  0.84195730  0.49335253    -0.79500
Cd269      Cd  0.04590057  0.86560765  0.37939480     1.59700
Cd270      Cd  0.15567286  0.84104385  0.34705051     1.59600
O271        O  0.04344674  0.81926875  0.32874396    -0.79500
O272        O  0.11178437  0.87897743  0.38824991    -1.90000
Cd273      Cd  0.12221422  0.86823595  0.45499111     1.59900
O274        O  0.11295625  0.80218000  0.29941070    -0.79500
O275        O  0.16324246  0.92101206  0.47920898    -0.78100
C276        C  0.19680991  0.93413527  0.31119775     0.84400
C277        C  0.02273926  0.95423457  0.33125072     0.84100
O278        O  0.14092440  0.97927177  0.43368849    -0.77100
C279        C  0.03220519  0.82103428  0.47556699     0.84900
O280        O  0.16638980  0.95389321  0.33549751    -0.77200
C281        C  0.06851592  0.79762733  0.30013719     0.85000
C282        C  0.19177028  0.79006652  0.43607329     0.85300
O283        O  0.19425235  0.79454529  0.39163886    -0.79600
C284        C  0.99916795  0.73163611  0.56759800     0.04500
C285        C  0.97432093  0.69910205  0.54058099    -0.11600
C286        C  0.96793218  0.70763447  0.49297798     0.02000
C287        C  0.98584795  0.74880429  0.47368649    -0.10100
C288        C  0.00991833  0.78157964  0.50017533     0.04500
C289        C  0.01747278  0.77214683  0.54717293    -0.09600
H290        H  0.95991387  0.66816493  0.55647105     0.10100
H291        H  0.98168864  0.75487580  0.43671776     0.07700
H292        H  0.03742793  0.79629975  0.56803556     0.07500
C293        C  0.25469190  0.06016948  0.47739641     0.04500
C294        C  0.29435649  0.03655295  0.49210724    -0.11600
C295        C  0.29230821  0.98896969  0.49998467     0.02000
C296        C  0.24997963  0.96522289  0.49311749    -0.10100
C297        C  0.20984394  0.98877460  0.47834021     0.04500
C298        C  0.21277273  0.03631976  0.47002311    -0.09600
H299        H  0.32627847  0.05539857  0.49881772     0.10100
H300        H  0.24835949  0.92822413  0.49942320     0.07700
H301        H  0.18260984  0.05479245  0.45731616     0.07500
C302        C  0.23813546  0.69160780  0.51038574     0.04500
C303        C  0.26280836  0.71822730  0.54345480    -0.11600
C304        C  0.26929643  0.76575318  0.53621169     0.02000
C305        C  0.25008056  0.78631744  0.49644185    -0.10100
C306        C  0.22360177  0.76141285  0.46427912     0.04500
C307        C  0.21782721  0.71351066  0.47112306    -0.09600
H308        H  0.27894880  0.70157530  0.57313421     0.10100
H309        H  0.25396317  0.82344695  0.49147983     0.07700
H310        H  0.19583420  0.69392192  0.44774431     0.07500
C311        C  0.01190249  0.74817641  0.19192679     0.04500
C312        C  0.04642119  0.76822957  0.22047293    -0.11600
C313        C  0.04178545  0.76687868  0.26883602     0.02000
C314        C  0.00244246  0.74519084  0.28809510    -0.10100
C315        C  0.96661307  0.72709258  0.26047174     0.04500
C316        C  0.97213644  0.72734535  0.21214719    -0.09600
H317        H  0.07526291  0.78703454  0.20502985     0.10100
H318        H  0.99879038  0.74442956  0.32561623     0.07700
H319        H  0.94459080  0.71362957  0.19050817     0.07500
C320        C  0.19618770  0.00359265  0.74516255     0.04500
C321        C  0.22281415  0.03593463  0.77070999    -0.11600
C322        C  0.27134641  0.03448350  0.76982795     0.02000
C323        C  0.29298707  0.99987739  0.74349126    -0.10100
C324        C  0.26753376  0.96706159  0.71780927     0.04500
C325        C  0.21874112  0.96930104  0.71828950    -0.09600
H326        H  0.20570996  0.06090049  0.79284219     0.10100
H327        H  0.33064768  0.99830598  0.74313764     0.07700
H328        H  0.19866903  0.94470821  0.69817443     0.07500
C329        C  0.76705766  0.19283584  0.00868501     0.04500
C330        C  0.78516108  0.22052213  0.04473863    -0.11600
C331        C  0.78019244  0.26870754  0.04292961     0.02000
C332        C  0.75725776  0.28856862  0.00459554    -0.10100
C333        C  0.74037142  0.26154758  0.96779229     0.04500
C334        C  0.74461338  0.21363689  0.97037511    -0.09600
H335        H  0.80476629  0.20483143  0.07277531     0.10100
H336        H  0.75410947  0.32594249  0.00266355     0.07700
H337        H  0.73213733  0.19290756  0.94163205     0.07500
C338        C  0.49066162  0.76589383  0.80461144     0.04500
C339        C  0.45526845  0.78304877  0.77567141    -0.11600
C340        C  0.46019679  0.78068854  0.72737459     0.02000
C341        C  0.50098994  0.76132208  0.70871010    -0.10100
C342        C  0.53709102  0.74526594  0.73726607     0.04500
C343        C  0.53144721  0.74734272  0.78524083    -0.09600
H344        H  0.42505303  0.79952027  0.79064010     0.10100
H345        H  0.50487292  0.75956321  0.67126854     0.07700
H346        H  0.55917693  0.73511942  0.80752373     0.07500
C347        C  0.50211228  0.72851035  0.43756295     0.04500
C348        C  0.48422089  0.77042985  0.45527707    -0.11600
C349        C  0.48854537  0.78117006  0.50259629     0.02000
C350        C  0.51043835  0.74903498  0.53186167    -0.10100
C351        C  0.52797571  0.70672424  0.51526086     0.04500
C352        C  0.52295048  0.69620904  0.46797830    -0.09600
H353        H  0.46664902  0.79443105  0.43230874     0.10100
H354        H  0.51359506  0.75675085  0.56858637     0.07700
H355        H  0.53784399  0.66466883  0.45436471     0.07500
C356        C  0.77082039  0.82225147  0.50885406     0.04500
C357        C  0.78101289  0.79780036  0.46770773    -0.11600
C358        C  0.77027329  0.75046360  0.46392967     0.02000
C359        C  0.75050319  0.72775180  0.50241594    -0.10100
C360        C  0.74130232  0.75135607  0.54394518     0.04500
C361        C  0.75087279  0.79871794  0.54682050    -0.09600
H362        H  0.79824681  0.81518806  0.43907285     0.10100
H363        H  0.74288267  0.69100432  0.50051678     0.07700
H364        H  0.74254430  0.81723943  0.57838953     0.07500
C365        C  0.45300590  0.48999774  0.74717614     0.04500
C366        C  0.47737819  0.51826655  0.71502628    -0.11600
C367        C  0.52458658  0.52766785  0.72207786     0.02000
C368        C  0.54666584  0.50899317  0.76143550    -0.10100
C369        C  0.52335320  0.47975628  0.79266618     0.04500
C370        C  0.47641413  0.47015297  0.78524203    -0.09600
H371        H  0.45974758  0.53317946  0.68530551     0.10100
H372        H  0.58362517  0.51483712  0.76630097     0.07700
H373        H  0.45855063  0.44597085  0.80799687     0.07500
C374        C  0.82243856  0.50971166  0.76389068     0.04500
C375        C  0.79864975  0.54802612  0.74559907    -0.11600
C376        C  0.75006812  0.54695229  0.74183900     0.02000
C377        C  0.72599414  0.50585235  0.75365809    -0.10100
C378        C  0.74978531  0.46667394  0.77053588     0.10900
C379        C  0.79794888  0.46963777  0.77673110    -0.09600
H380        H  0.81774574  0.57889144  0.73553795     0.10100
H381        H  0.68853335  0.50454918  0.75006347     0.07700
H382        H  0.81662000  0.44060188  0.79155182     0.07500
C383        C  0.74641641  0.44460185  0.50838722     0.04500
C384        C  0.71336838  0.47080224  0.53325401    -0.11600
C385        C  0.71539284  0.51917620  0.53240285     0.02000
C386        C  0.75120529  0.54081183  0.50764510    -0.10100
C387        C  0.78436382  0.51598300  0.48258654     0.04500
C388        C  0.78185541  0.46737642  0.48258558    -0.09600
H389        H  0.68720233  0.45356013  0.55426844     0.10100
H390        H  0.75299908  0.57839203  0.50737058     0.07700
H391        H  0.80669834  0.44765232  0.46265952     0.07500
C392        C  0.69461124  0.47298181  0.27470090     0.04500
C393        C  0.71197045  0.51646166  0.28846160    -0.11600
C394        C  0.75620294  0.53128550  0.27457732     0.02000
C395        C  0.78339122  0.50102139  0.24825267    -0.10100
C396        C  0.76766894  0.45663357  0.23525321     0.04500
C397        C  0.72273245  0.44268710  0.24841796    -0.09600
H398        H  0.69053072  0.53909871  0.30929862     0.10100
H399        H  0.81829297  0.51163553  0.23882354     0.07700
H400        H  0.70924286  0.40948143  0.23723890     0.07500
O401        O  0.10003609  0.32417705  0.73616808    -0.77100
C402        C  0.22563778  0.42031766  0.71456020     0.84000
O403        O  0.05260109  0.45093008  0.63992604    -0.78200
O404        O  0.21256346  0.43044432  0.58353619    -0.79700
O405        O  0.17941245  0.26547451  0.60391991    -0.79500
O406        O  0.08422970  0.27753159  0.67682987    -0.78100
Zn407      Zn  0.12924673  0.37859403  0.70113726     1.55700
O408        O  0.22623584  0.32360565  0.58436973    -0.79500
Cd409      Cd  0.12431140  0.30429372  0.62557194     1.59700
Cd410      Cd  0.09772619  0.41250265  0.59402849     1.59600
O411        O  0.08187021  0.29856598  0.57167422    -0.79500
O412        O  0.13670651  0.37011626  0.63602974    -1.90000
Cd413      Cd  0.20359875  0.37632465  0.62542814     1.59900
O414        O  0.05844365  0.36799135  0.54703638    -0.79500
O415        O  0.24281257  0.39687212  0.68146370    -0.78100
C416        C  0.05362754  0.44997989  0.68462687     0.84400
C417        C  0.07768015  0.29027297  0.71839074     0.84100
O418        O  0.18367500  0.41426793  0.72746014    -0.77100
C419        C  0.21151933  0.28246134  0.57867606     0.84900
O420        O  0.08107149  0.42374189  0.70641002    -0.77200
C421        C  0.05769047  0.32340083  0.54493995     0.85000
C422        C  0.19027393  0.45874885  0.55857436     0.85300
O423        O  0.14552301  0.45855849  0.55730703    -0.79600
O424        O  0.56457031  0.15281914  0.48398883    -0.77100
C425        C  0.67221292  0.03692316  0.45845330     0.84000
O426        O  0.68903541  0.20682664  0.38621248    -0.78200
O427        O  0.66644849  0.04862871  0.32189920    -0.79700
O428        O  0.50700281  0.07077176  0.34132490    -0.79500
O429        O  0.51242957  0.16083621  0.42725924    -0.78100
Zn430      Zn  0.61985402  0.12770754  0.44761013     1.55700
O431        O  0.56494526  0.02072755  0.33394822    -0.79500
Cd432      Cd  0.54185895  0.12635902  0.37227254     1.59700
Cd433      Cd  0.65020713  0.16055146  0.34149525     1.59600
O434        O  0.53623462  0.17386229  0.32235532    -0.79500
O435        O  0.60894304  0.11852319  0.38245157    -1.90000
Cd436      Cd  0.61826458  0.05212032  0.37056348     1.59900
O437        O  0.60510256  0.19912057  0.29681938    -0.79500
O438        O  0.65263983  0.01812999  0.42347474    -0.78100
C439        C  0.68860187  0.20697629  0.43088459     0.84400
C440        C  0.52706326  0.17012958  0.46800371     0.84100
O441        O  0.65970323  0.07649653  0.47327473    -0.77100
C442        C  0.52419153  0.03422084  0.32360717     0.84900
O443        O  0.66329825  0.17895310  0.45345465    -0.77200
C444        C  0.56052350  0.19941974  0.29601333     0.85000
C445        C  0.69352917  0.07283671  0.29726665     0.85300
O446        O  0.69488054  0.11720140  0.30028759    -0.79600
C447        C  0.47432358  0.24093782  0.56602965     0.04500
C448        C  0.45805945  0.28005553  0.54094612    -0.11600
C449        C  0.46420097  0.28246510  0.49241523     0.02000
C450        C  0.48724583  0.24593074  0.47005218    -0.10100
C451        C  0.50278015  0.20676580  0.49429399     0.04500
C452        C  0.49677611  0.20478513  0.54238437    -0.09600
H453        H  0.43822306  0.30652317  0.55845420     0.10100
H454        H  0.49154901  0.24731843  0.43259744     0.07700
H455        H  0.50920410  0.17484649  0.56143691     0.07500
O456        O  0.39770334  0.32654155  0.26669766    -0.77100
C457        C  0.28091799  0.43010142  0.29252874     0.84000
O458        O  0.45895241  0.43898144  0.36939210    -0.78200
O459        O  0.29417640  0.43331307  0.42599542    -0.79700
O460        O  0.31097025  0.26762803  0.39725584    -0.79500
O461        O  0.40990815  0.27696156  0.32444873    -0.78100
Zn462      Zn  0.37260295  0.37965476  0.30559630     1.55700
O463        O  0.26823723  0.32858911  0.41672059    -0.79500
Cd464      Cd  0.37062298  0.30242194  0.37764386     1.59700
Cd465      Cd  0.40714849  0.40633345  0.41369880     1.59600
O466        O  0.41181954  0.29146029  0.43254167    -0.79500
O467        O  0.36392744  0.36930875  0.37036516    -1.90000
Cd468      Cd  0.29777826  0.38171605  0.38086014     1.59900
O469        O  0.43937146  0.35771731  0.46143589    -0.79500
O470        O  0.26111167  0.40975492  0.32638975    -0.78100
C471        C  0.45768639  0.43941806  0.32470501     0.84400
C472        C  0.41872689  0.29159714  0.28360158     0.84100
O473        O  0.32210744  0.41977819  0.28025604    -0.77100
C474        C  0.27820296  0.28596300  0.42043036     0.84900
O475        O  0.42592583  0.41879639  0.30266638    -0.77200
C476        C  0.43657978  0.31321024  0.46161399     0.85000
C477        C  0.31960420  0.45914028  0.45065673     0.85300
O478        O  0.36422593  0.45580673  0.45073464    -0.79600
C479        C  0.56586641  0.46210359  0.25294663     0.04500
C480        C  0.54484302  0.48227896  0.21362460    -0.11600
C481        C  0.49772077  0.49330573  0.21402961     0.02000
C482        C  0.47209148  0.48512945  0.25463077    -0.10100
C483        C  0.49147731  0.46322295  0.29381969     0.04500
C484        C  0.53900815  0.45220220  0.29310837    -0.09600
H485        H  0.56529448  0.48970297  0.18282057     0.10100
H486        H  0.43540940  0.49358229  0.25497639     0.07700
H487        H  0.55418265  0.43345942  0.32197375     0.07500
C488        C  0.50103155  0.73607974  0.93307597     0.04500
C489        C  0.49074250  0.69561125  0.95788900    -0.11600
C490        C  0.49249299  0.69516700  0.00634439     0.02000
C491        C  0.50503665  0.73611819  0.02989011    -0.10100
C492        C  0.51620550  0.77702578  0.00523325     0.04500
C493        C  0.51416758  0.77662903  0.95663034    -0.09600
H494        H  0.48054144  0.66455500  0.93935492     0.10100
H495        H  0.50641952  0.73605590  0.06753756     0.07700
H496        H  0.52428965  0.80725249  0.93718284     0.07500
O497        O  0.34493171  0.50193318  0.08095310    -0.77100
C498        C  0.47429240  0.51657655  0.17457269     0.84000
O499        O  0.30837314  0.61287745  0.19750075    -0.78200
O500        O  0.47480577  0.65094374  0.18068767    -0.79700
O501        O  0.44068399  0.63168406  0.01532515    -0.79500
O502        O  0.34328077  0.55513692  0.02510173    -0.78100
Zn503      Zn  0.37929659  0.53791123  0.13208523     1.55700
O504        O  0.48874704  0.64777535  0.07381760    -0.79500
Cd505      Cd  0.38426550  0.60701438  0.05212721     1.59700
Cd506      Cd  0.35996503  0.64869565  0.15796479     1.59600
O507        O  0.34130329  0.66014311  0.04440881    -0.79500
O508        O  0.39508669  0.60071035  0.11917158    -1.90000
Cd509      Cd  0.46280558  0.60762283  0.12750912     1.59900
O510        O  0.32621514  0.69543184  0.11143045    -0.79500
O511        O  0.49551158  0.54824058  0.15177562    -0.78100
C512        C  0.30407606  0.56879715  0.19986882     0.84400
C513        C  0.32842640  0.51740025  0.04278347     0.84100
O514        O  0.43113882  0.50829173  0.16837870    -0.77100
C515        C  0.47425804  0.65491702  0.03259628     0.84900
O516        O  0.32997947  0.54212080  0.17685973    -0.77200
C517        C  0.32170521  0.69180590  0.06723578     0.85000
C518        C  0.45286298  0.67954385  0.20549311     0.85300
O519        O  0.40857368  0.68416983  0.20251162    -0.79600
C520        C  0.24796478  0.56020658  0.49316943     0.04500
C521        C  0.28585181  0.53651982  0.47305769    -0.11600
C522        C  0.29253820  0.48928267  0.48197706     0.02000
C523        C  0.26023031  0.46615785  0.51015839    -0.10100
C524        C  0.22062943  0.48795992  0.52835036     0.04500
C525        C  0.21484993  0.53556061  0.52030314    -0.09600
H526        H  0.30905510  0.55448489  0.44933725     0.10100
H527        H  0.26438144  0.42912943  0.51519890     0.07700
H528        H  0.18532184  0.55325955  0.53510841     0.07500
O529        O  0.51330064  0.91209951  0.15565322    -0.77100
C530        C  0.53704611  0.81667824  0.03038243     0.84000
O531        O  0.62129750  0.80129122  0.20321479    -0.78200
O532        O  0.67251273  0.81739416  0.04317254    -0.79700
O533        O  0.64793996  0.98018693  0.06386930    -0.79500
O534        O  0.56217277  0.97211635  0.15709634    -0.78100
Zn535      Zn  0.55130730  0.86186676  0.12475291     1.55700
O536        O  0.66562638  0.92012008  0.01916641    -0.79500
Cd537      Cd  0.61829568  0.94623217  0.12069098     1.59700
Cd538      Cd  0.66103529  0.84424614  0.15637218     1.59600
O539        O  0.66763712  0.95925534  0.16724246    -0.79500
O540        O  0.61476981  0.87844327  0.11437762    -1.90000
Cd541      Cd  0.62612133  0.86765373  0.04786222     1.59900
O542        O  0.70195458  0.89514405  0.19310437    -0.79500
O543        O  0.57084548  0.83873400  0.01188144    -0.78100
C544        C  0.57716341  0.79474544  0.20182462     0.84400
C545        C  0.52509060  0.95194155  0.17078051     0.84100
O546        O  0.52457919  0.82419599  0.07214053    -0.77100
C547        C  0.67167746  0.96203039  0.03117829     0.84900
O548        O  0.55170353  0.81610280  0.17330107    -0.77200
C549        C  0.69741015  0.93939890  0.19251002     0.85000
C550        C  0.70192085  0.79679658  0.06825673     0.85300
O551        O  0.70403471  0.80233533  0.11250703    -0.79600
C552        C  0.76102091  0.69639775  0.00957605     0.04500
C553        C  0.78248744  0.71966681  0.97174096    -0.11600
C554        C  0.78105705  0.76825934  0.96918632     0.02000
C555        C  0.75713706  0.79236089  0.00393225    -0.10100
C556        C  0.73563195  0.76969514  0.04141592     0.04500
C557        C  0.73825862  0.72160493  0.04452674    -0.09600
H558        H  0.80237928  0.70039507  0.94647914     0.10100
H559        H  0.75535049  0.82985790  0.00187032     0.07700
H560        H  0.72065076  0.70360756  0.07263340     0.07500
O561        O  0.90417127  0.17826221  0.73132803    -0.77100
C562        C  0.78697910  0.07488976  0.71313714     0.84000
O563        O  0.95603095  0.05997174  0.63088907    -0.78200
O564        O  0.79491767  0.07962969  0.57488316    -0.79700
O565        O  0.81913930  0.24001137  0.59220924    -0.79500
O566        O  0.91087942  0.23432125  0.67822796    -0.78100
Zn567      Zn  0.87806333  0.12500969  0.69536074     1.55700
O568        O  0.76840499  0.18181152  0.58713334    -0.79500
Cd569      Cd  0.87520507  0.20630562  0.62279973     1.59700
Cd570      Cd  0.90928530  0.10099826  0.58750704     1.59600
O571        O  0.92205609  0.21628358  0.57251179    -0.79500
O572        O  0.86729889  0.13865430  0.63116434    -1.90000
Cd573      Cd  0.79982650  0.12809317  0.62328938     1.59900
O574        O  0.94714100  0.14971166  0.54311087    -0.79500
O575        O  0.76670356  0.09355746  0.67836869    -0.78100
C576        C  0.95600939  0.05731082  0.67561193     0.84400
C577        C  0.92151549  0.21653868  0.71739504     0.84100
O578        O  0.82802640  0.08658326  0.72447054    -0.77100
C579        C  0.78237396  0.22210835  0.57501807     0.84900
O580        O  0.92818444  0.08109966  0.69939455    -0.77200
C581        C  0.94730493  0.19433290  0.54431455     0.85000
C582        C  0.81882140  0.05499629  0.54782752     0.85300
O583        O  0.86352120  0.05694041  0.54730258    -0.79600
C584        C  0.69756020  0.99098384  0.76373334     0.04500
C585        C  0.71715535  0.03002746  0.74135805    -0.11600
C586        C  0.76526568  0.03511445  0.73805585     0.02000
C587        C  0.79363517  0.99995506  0.75643753    -0.10100
C588        C  0.77469074  0.96036728  0.77843896     0.04500
C589        C  0.72642214  0.95627080  0.78211986    -0.09600
H590        H  0.69515543  0.05728858  0.72796353     0.10100
H591        H  0.83108453  0.00364925  0.75433510     0.07700
H592        H  0.71140530  0.92736722  0.80108815     0.07500
O593        O  0.85366362  0.98474195  0.92791183    -0.77100
C594        C  0.97577661  0.96316835  0.82058953     0.84000
O595        O  0.80397606  0.88696187  0.80921253    -0.78200
O596        O  0.96166828  0.82453457  0.82760681    -0.79700
O597        O  0.93970863  0.84733598  0.98939901    -0.79500
O598        O  0.84297045  0.92842879  0.98005241    -0.78100
Zn599      Zn  0.88485428  0.94975065  0.87459620     1.55700
O600        O  0.98878054  0.83800312  0.93027534    -0.79500
Cd601      Cd  0.88352639  0.87569512  0.95385211     1.59700
Cd602      Cd  0.84970496  0.84215577  0.84803332     1.59600
O603        O  0.83878120  0.82329772  0.96252923    -0.79500
O604        O  0.89282206  0.88467828  0.88633017    -1.90000
Cd605      Cd  0.95942868  0.87415713  0.87527101     1.59900
O606        O  0.81104001  0.79771716  0.89502020    -0.79500
O607        O  0.99388580  0.92677179  0.83813664    -0.78100
C608        C  0.80611371  0.93139663  0.80689631     0.84400
C609        C  0.83280354  0.96814889  0.96359507     0.84100
O610        O  0.93650931  0.97777796  0.83483760    -0.77100
C611        C  0.97468852  0.82743559  0.97109336     0.84900
O612        O  0.83555468  0.95412980  0.82999967    -0.77200
C613        C  0.81249438  0.79662260  0.93966920     0.85000
C614        C  0.93687807  0.79876265  0.80216400     0.85300
O615        O  0.89229940  0.80070804  0.80292318    -0.79600
O616        O  0.09824914  0.67038886  0.77008752    -0.77100
C617        C  0.22399194  0.57596890  0.78680865     0.84000
O618        O  0.04991606  0.55016620  0.86570947    -0.78200
O619        O  0.20985259  0.56409105  0.92538230    -0.79700
O620        O  0.18823017  0.72942158  0.90927555    -0.79500
O621        O  0.09478217  0.72479660  0.82441027    -0.78100
Zn622      Zn  0.12994495  0.61843749  0.80414059     1.55700
O623        O  0.23502482  0.66896353  0.91761918    -0.79500
Cd624      Cd  0.13217906  0.69543441  0.87793199     1.59700
Cd625      Cd  0.09660518  0.58801525  0.91075423     1.59600
O626        O  0.08511097  0.70188948  0.92772325    -0.79500
O627        O  0.13911088  0.62811413  0.86908828    -1.90000
Cd628      Cd  0.20522033  0.61677071  0.88026415     1.59900
O629        O  0.05840637  0.63450866  0.95501255    -0.79500
O630        O  0.24144720  0.59282686  0.82371456    -0.78100
C631        C  0.05222669  0.54938780  0.82114002     0.84400
C632        C  0.08092032  0.70751661  0.78608663     0.84100
O633        O  0.18264096  0.58485976  0.77416326    -0.77100
C634        C  0.22342847  0.71008279  0.92789956     0.84900
O635        O  0.08164646  0.57340355  0.79926079    -0.77200
C636        C  0.05887535  0.67905585  0.95459628     0.85000
C637        C  0.18478615  0.53824683  0.95077494     0.85300
O638        O  0.14015898  0.54109362  0.95044934    -0.79600
C639        C  0.98369972  0.73048509  0.69907104     0.04500
C640        C  0.02626288  0.71538141  0.71814612    -0.11600
C641        C  0.03892504  0.72709423  0.76353106     0.02000
C642        C  0.00731256  0.75194399  0.79053944    -0.10100
C643        C  0.96387559  0.76618192  0.77305006     0.04500
C644        C  0.95197151  0.75487704  0.72718158    -0.09600
H645        H  0.04965735  0.69440358  0.69778948     0.10100
H646        H  0.01632536  0.75983200  0.82624456     0.07700
H647        H  0.91975895  0.76755959  0.71252031     0.07500
C648        C  0.95314907  0.51272511  0.74325550     0.04500
C649        C  0.97857025  0.48978173  0.70832927    -0.11600
C650        C  0.02567382  0.48028938  0.71520072     0.02000
C651        C  0.04701826  0.49535911  0.75648790    -0.10100
C652        C  0.02311835  0.52023873  0.79056318     0.04500
C653        C  0.97569165  0.52842104  0.78407541    -0.09600
H654        H  0.96120332  0.47726040  0.67736530     0.10100
H655        H  0.08399612  0.48982422  0.76120584     0.07700
H656        H  0.95707060  0.54926928  0.80905131     0.07500
C657        C  0.32269559  0.50753745  0.73584878     0.04500
C658        C  0.29748872  0.54455492  0.75414757    -0.11600
C659        C  0.24987140  0.54013849  0.76185127     0.02000
C660        C  0.22741113  0.49816443  0.75144649    -0.10100
C661        C  0.25203093  0.46049681  0.73302092     0.04500
C662        C  0.29993553  0.46561039  0.72504685    -0.09600
H663        H  0.31513741  0.57642950  0.76345204     0.10100
H664        H  0.19036555  0.49505707  0.75757446     0.07700
H665        H  0.31925029  0.43755428  0.70949412     0.07500
C666        C  0.76853976  0.95110909  0.48365560     0.04500
C667        C  0.80095108  0.97893752  0.50767051    -0.11600
C668        C  0.79054773  0.02542463  0.51656794     0.02000
C669        C  0.74726243  0.04306913  0.50177458    -0.10100
C670        C  0.71461228  0.01546370  0.47831871     0.04500
C671        C  0.72620815  0.96965719  0.46845913    -0.09600
H672        H  0.83292852  0.96408703  0.52066432     0.10100
H673        H  0.73913012  0.07905390  0.50840306     0.07700
H674        H  0.70182248  0.94789805  0.44976179     0.07500
C675        C  0.01309086  0.25261080  0.44334786     0.04500
C676        C  0.03405842  0.28987216  0.46741865    -0.11600
C677        C  0.02610431  0.29587208  0.51504163     0.02000
C678        C  0.99789870  0.26342836  0.53825237    -0.10100
C679        C  0.97855068  0.22456389  0.51586666     0.04500
C680        C  0.98577567  0.21958227  0.46787332    -0.09600
H681        H  0.05764968  0.31316298  0.44940184     0.10100
H682        H  0.99326848  0.26710342  0.57549757     0.07700
H683        H  0.97007212  0.19069727  0.44972845     0.07500
C684        C  0.00648075  0.23723489  0.81496494     0.04500
C685        C  0.04370586  0.25774261  0.79131825    -0.11600
C686        C  0.03967135  0.26776298  0.74412653     0.02000
C687        C  0.99777683  0.25759131  0.72082728    -0.10100
C688        C  0.96032701  0.23658616  0.74429319     0.04500
C689        C  0.96514622  0.22631237  0.79150118    -0.09600
H690        H  0.07548187  0.26625172  0.80969074     0.10100
H691        H  0.99497068  0.26465141  0.68390194     0.07700
H692        H  0.93718917  0.20881530  0.80982717     0.07500
C693        C  0.51333483  0.74370453  0.30504977     0.04500
C694        C  0.54843169  0.76691371  0.27965421    -0.11600
C695        C  0.55166232  0.76145125  0.23150263     0.02000
C696        C  0.51931028  0.73277315  0.20908928    -0.10100
C697        C  0.48293335  0.71081919  0.23313934     0.04500
C698        C  0.48019882  0.71586998  0.28156733    -0.09600
H699        H  0.57174437  0.79080277  0.29706853     0.10100
H700        H  0.52106367  0.72942450  0.17155248     0.07700
H701        H  0.45274497  0.69850514  0.30066972     0.07500
C702        C  0.79555384  0.01428468  0.23906828     0.04500
C703        C  0.77284016  0.97524957  0.21982691    -0.11600
C704        C  0.72446299  0.97160462  0.22194535     0.02000
C705        C  0.69956661  0.00665664  0.24433823    -0.10100
C706        C  0.72156723  0.04522790  0.26454069     0.04500
C707        C  0.76977461  0.04951170  0.26078034    -0.09600
H708        H  0.79246945  0.94940095  0.20115606     0.10100
H709        H  0.66200316  0.00373528  0.24620871     0.07700
H710        H  0.78745889  0.07833791  0.27725339     0.07500
C711        C  0.27175274  0.79997219  0.01206986     0.04500
C712        C  0.29386908  0.77128219  0.04477149    -0.11600
C713        C  0.29306194  0.72334208  0.03893759     0.02000
C714        C  0.27035419  0.70460017  0.99998978    -0.10100
C715        C  0.24876832  0.73270948  0.96659540     0.04500
C716        C  0.24890397  0.78058069  0.97324203    -0.09600
H717        H  0.31286467  0.78630182  0.07360421     0.10100
H718        H  0.26967316  0.66731897  0.99569990     0.07700
H719        H  0.23253628  0.80266509  0.94759531     0.07500
C720        C  0.74741718  0.31313391  0.48494534     0.04500
C721        C  0.72521113  0.28498257  0.45140899    -0.11600
C722        C  0.71841383  0.23751168  0.46017858     0.02000
C723        C  0.73524901  0.21862787  0.50222780    -0.10100
C724        C  0.75881873  0.24560732  0.53528399     0.04500
C725        C  0.76508647  0.29288713  0.52606485    -0.09600
H726        H  0.71100300  0.30042256  0.42013094     0.10100
H727        H  0.73082100  0.18186971  0.50871631     0.07700
H728        H  0.78415277  0.31391396  0.55071483     0.07500
C729        C  0.19243127  0.51785481  0.24866250     0.04500
C730        C  0.22259229  0.55076087  0.22797754    -0.11600
C731        C  0.27083563  0.54453950  0.23042440     0.02000
C732        C  0.28823782  0.50533331  0.25299416    -0.10100
C733        C  0.25903794  0.47086994  0.27073646     0.04500
C734        C  0.21100839  0.47791122  0.27004133    -0.09600
H735        H  0.20858267  0.57959272  0.20837308     0.10100
H736        H  0.32558517  0.50063456  0.25459271     0.07700
H737        H  0.18822496  0.45146970  0.28422619     0.07500
C738        C  0.23430868  0.42976027  0.00851330     0.04500
C739        C  0.27621196  0.44822460  0.02646228    -0.11600
C740        C  0.28665099  0.49536076  0.02146216     0.02000
C741        C  0.25405497  0.52392383  0.99928714    -0.10100
C742        C  0.21165573  0.50669216  0.98168720     0.04500
C743        C  0.20153588  0.45936529  0.98718975    -0.09600
H744        H  0.30070186  0.42586840  0.04408099     0.10100
H745        H  0.26169961  0.56056387  0.99563640     0.07700
H746        H  0.17004085  0.44508734  0.97223434     0.07500
C747        C  0.42600610  0.98198889  0.25220631     0.04500
C748        C  0.45006989  0.00430122  0.28842003    -0.11600
C749        C  0.49836936  0.00940752  0.28651550     0.02000
C750        C  0.52212857  0.99414384  0.24654736    -0.10100
C751        C  0.49830489  0.97246388  0.20958828     0.04500
C752        C  0.45032339  0.96519069  0.21355802    -0.09600
H753        H  0.43133546  0.01682709  0.31846199     0.10100
H754        H  0.55946428  0.99869837  0.24445530     0.07700
H755        H  0.43170191  0.94735287  0.18612228     0.07500
C756        C  0.50310229  0.25102155  0.18958033     0.04500
C757        C  0.46399193  0.27189183  0.21044527    -0.11600
C758        C  0.45865826  0.27065842  0.25888514     0.02000
C759        C  0.49397252  0.25087393  0.28590583    -0.10100
C760        C  0.53307950  0.23027357  0.26586429     0.04500
C761        C  0.53749396  0.23030370  0.21754725    -0.09600
H762        H  0.43680799  0.28678088  0.18920578     0.10100
H763        H  0.49052277  0.25010123  0.32344787     0.07700
H764        H  0.56608825  0.21194778  0.20164752     0.07500
C765        C  0.22919778  0.18704398  0.49124980     0.04500
C766        C  0.21802819  0.20958947  0.53267867    -0.11600
C767        C  0.22727604  0.25683097  0.53754119     0.02000
C768        C  0.24544028  0.28151154  0.49950736    -0.10100
C769        C  0.25522938  0.25932879  0.45735272     0.04500
C770        C  0.24792335  0.21182007  0.45360231    -0.09600
H771        H  0.20304739  0.19014526  0.56128821     0.10100
H772        H  0.25189799  0.31838763  0.50257263     0.07700
H773        H  0.25662480  0.19423039  0.42156632     0.07500
C774        C  0.00197827  0.73281183  0.06015773     0.04500
C775        C  0.02113683  0.69861951  0.03132387    -0.11600
C776        C  0.02908334  0.70831271  0.98435962     0.02000
C777        C  0.01541215  0.75167433  0.96628097    -0.10100
C778        C  0.99500394  0.78581798  0.99413746     0.04500
C779        C  0.98834344  0.77595003  0.04142028    -0.09600
H780        H  0.03286964  0.66614389  0.04611057     0.10100
H781        H  0.02047086  0.75863225  0.92957121     0.07700
H782        H  0.97217583  0.80144455  0.06360152     0.07500
C783        C  0.74694346  0.06301304  0.99414083     0.04500
C784        C  0.70832767  0.03693002  0.00804506    -0.11600
C785        C  0.71047393  0.98877749  0.01006268     0.02000
C786        C  0.75231328  0.96671821  0.99736573    -0.10100
C787        C  0.79161939  0.99260798  0.98271454     0.04500
C788        C  0.78839732  0.04101472  0.98105570    -0.09600
H789        H  0.67670249  0.05437851  0.01829661     0.10100
H790        H  0.75424949  0.92928383  0.99881296     0.07700
H791        H  0.81761303  0.06145507  0.96879140     0.07500
C792        C  0.06340424  0.99786316  0.72609161     0.04500
C793        C  0.04466942  0.98010153  0.76801801    -0.11600
C794        C  0.99756419  0.98580442  0.77886925     0.02000
C795        C  0.96932103  0.00914371  0.74646274    -0.10100
C796        C  0.98686367  0.02645168  0.70371502     0.04500
C797        C  0.03405040  0.01982824  0.69347102    -0.09600
H798        H  0.06686148  0.96172922  0.79217054     0.10100
H799        H  0.93279125  0.01350428  0.75432246     0.07700
H800        H  0.04853580  0.03433256  0.66182130     0.07500
C801        C  0.61612759  0.45215282  0.25010591    -0.15000
C802        C  0.64528313  0.46277331  0.28478995    -0.30200
H803        H  0.63049795  0.44537174  0.21584068     0.14000
H804        H  0.63113909  0.47489377  0.31757469     0.14600
C805        C  0.74476429  0.39357650  0.51313517    -0.15000
C806        C  0.75118058  0.36401277  0.47765590    -0.30200
H807        H  0.73463492  0.37986018  0.54691686     0.14000
H808        H  0.75622160  0.37735010  0.44263136     0.14600
C809        C  0.87293288  0.51103720  0.77154361    -0.15000
C810        C  0.90277302  0.51952140  0.73678294    -0.30200
H811        H  0.88592378  0.49893300  0.80490751     0.14000
H812        H  0.88958549  0.52621096  0.70199423     0.14600
C813        C  0.40296354  0.48037399  0.74221732    -0.15000
C814        C  0.37314062  0.51357437  0.72973809    -0.30200
H815        H  0.38969153  0.44765889  0.75556057     0.14000
H816        H  0.38611771  0.54803597  0.72160286     0.14600
C817        C  0.77934416  0.87265150  0.51302346    -0.15000
C818        C  0.77581258  0.90137429  0.47650678    -0.30200
H819        H  0.78175468  0.88730046  0.54769756     0.14000
H820        H  0.76784844  0.88771678  0.44232611     0.14600
C821        C  0.51030310  0.75227176  0.35562145    -0.15000
C822        C  0.50076511  0.71889339  0.38695558    -0.30200
H823        H  0.52019145  0.78652190  0.36779445     0.14000
H824        H  0.49598736  0.68338486  0.37548437     0.14600
C825        C  0.48611999  0.76872260  0.85536959    -0.15000
C826        C  0.50107549  0.73391621  0.88224629    -0.30200
H827        H  0.46991981  0.79894493  0.87066811     0.14000
H828        H  0.51257460  0.70185265  0.86637191     0.14600
C829        C  0.74203726  0.11344627  0.99217633    -0.15000
C830        C  0.77400952  0.14230540  0.00980295    -0.30200
H831        H  0.70913773  0.12693800  0.97969113     0.14000
H832        H  0.80452187  0.12849550  0.02713438     0.14600
C833        C  0.14501496  0.00429343  0.75112495    -0.15000
C834        C  0.11418608  0.99509073  0.71714752    -0.30200
H835        H  0.13207183  0.01554309  0.78472314     0.14000
H836        H  0.12624175  0.98868682  0.68198874     0.14600
C837        C  0.01539213  0.75449490  0.14110261    -0.15000
C838        C  0.99815729  0.72398410  0.11046047    -0.30200
H839        H  0.03380176  0.78496489  0.12828558     0.14000
H840        H  0.98399732  0.69101197  0.12219834     0.14600
C841        C  0.23406935  0.64092542  0.51790973    -0.15000
C842        C  0.24315259  0.61051272  0.48390697    -0.30200
H843        H  0.22959808  0.62835264  0.55331860     0.14000
H844        H  0.25303154  0.62344829  0.44973708     0.14600
C845        C  0.22312647  0.13699599  0.48881992    -0.15000
C846        C  0.25706768  0.11039236  0.47217856    -0.30200
H847        H  0.19342844  0.12152833  0.50632585     0.14000
H848        H  0.28931184  0.12588310  0.46000457     0.14600
C849        C  0.00803987  0.72434052  0.61726849    -0.15000
C850        C  0.97365781  0.72438307  0.64885669    -0.30200
H851        H  0.04389721  0.72825946  0.62830231     0.14000
H852        H  0.93782583  0.72623042  0.63705671     0.14600
C853        C  0.98696747  0.23957959  0.36249376    -0.15000
C854        C  0.02149866  0.24838280  0.39268006    -0.30200
H855        H  0.95175283  0.23516283  0.37549803     0.14000
H856        H  0.05554139  0.25816087  0.37939623     0.14600
C857        C  0.97632117  0.24196743  0.89317243    -0.15000
C858        C  0.01061591  0.22922416  0.86487672    -0.30200
H859        H  0.94494081  0.25744593  0.87913040     0.14000
H860        H  0.04416811  0.21933411  0.87902409     0.14600
C861        C  0.34772384  0.01131224  0.26676495    -0.15000
C862        C  0.37517839  0.97621769  0.25416589    -0.30200
H863        H  0.36292489  0.04496085  0.27448406     0.14000
H864        H  0.35986857  0.94427848  0.24120959     0.14600
C865        C  0.24014222  0.87825325  0.00600222    -0.15000
C866        C  0.27548402  0.85043606  0.01709534    -0.30200
H867        H  0.20658034  0.86354759  0.99668256     0.14000
H868        H  0.30742892  0.86493769  0.03117863     0.14600
C869        C  0.25956880  0.34895914  0.99997379    -0.15000
C870        C  0.22564587  0.37910378  0.01030087    -0.30200
H871        H  0.29298681  0.36223353  0.98817104     0.14000
H872        H  0.19064560  0.36658277  0.01719444     0.14600
C873        C  0.87386987  0.98284090  0.24800429    -0.15000
C874        C  0.84646638  0.01860500  0.23711233    -0.30200
H875        H  0.85850962  0.95034494  0.25968446     0.14000
H876        H  0.86168288  0.05256599  0.23066026     0.14600
C877        C  0.61733572  0.00270015  0.73801795    -0.15000
C878        C  0.64691190  0.98743109  0.77045276    -0.30200
H879        H  0.63050999  0.01527689  0.70488175     0.14000
H880        H  0.63369555  0.97009109  0.80136381     0.14600
C881        C  0.47453212  0.26963459  0.64698491    -0.15000
C882        C  0.46731229  0.23515649  0.61678255    -0.30200
H883        H  0.48357375  0.30385311  0.63385091     0.14000
H884        H  0.46384103  0.20003441  0.63019918     0.14600
C885        C  0.48939091  0.27539490  0.10777538    -0.15000
C886        C  0.50617832  0.24494801  0.13875603    -0.30200
H887        H  0.47553188  0.30838695  0.11905965     0.14000
H888        H  0.52423054  0.21449025  0.12613512     0.14600
C889        C  0.14156511  0.52260635  0.24311499    -0.15000
C890        C  0.11138480  0.50830931  0.27590398    -0.30200
H891        H  0.12854938  0.53823689  0.21127375     0.14000
H892        H  0.12403604  0.49702085  0.30965886     0.14600
C893        C  0.74597143  0.61612719  0.98436500    -0.15000
C894        C  0.76423635  0.64585215  0.01526244    -0.30200
H895        H  0.72797564  0.62960027  0.95400738     0.14000
H896        H  0.77766490  0.63312952  0.04816297     0.14600
loop_ 
_geom_bond_atom_site_label_1 
_geom_bond_atom_site_label_2 
_geom_bond_distance 
_geom_bond_site_symmetry_2 
_ccdc_geom_bond_type 
O1           C17   1.271       .  A
O1           Zn7   1.989       .  S
C2           O18   1.274       .  A
C2           O15   1.272       .  A
C2          C360   1.472       .  S
O3           C16   1.286       .  A
O3          Cd10   2.162       .  S
O4           C22   1.265       .  A
O4          Cd13   1.990       .  S
O5           C19   1.276       .  A
O5           Cd9   2.081       .  S
O6           C17   1.278       .  A
O6           Cd9   2.086       .  S
Zn7          O18   2.030       .  S
Zn7          O20   1.927       .  S
Zn7          O12   1.911       .  S
O8           C19   1.273       .  A
O8          Cd13   2.064       .  S
Cd9          O11   1.993       .  S
Cd9          O12   1.972       .  S
Cd10         O14   2.155       .  S
Cd10         O23   2.154       .  S
Cd10         O12   2.056       .  S
O11          C21   1.264       .  A
O12         Cd13   1.965       .  S
Cd13         O15   2.049       .  S
O14          C21   1.286       .  A
C16          O20   1.263       .  A
C16         C351   1.485       .  S
C17         C342   1.482       .  S
C19         C376   1.482       .  S
C21         C367   1.480       .  S
C22          O23   1.285       .  A
C22         C385   1.479       .  S
O24          C40   1.276       .  A
O24         Zn30   1.999       .  S
C25          O41   1.276       .  A
C25          O38   1.272       .  A
C25         C315   1.486       .  S
O26          C39   1.283       .  A
O26         Cd33   2.149       .  S
O27          C45   1.264       .  A
O27         Cd36   1.983       .  S
O28          C42   1.277       .  A
O28         Cd32   2.078       .  S
O29          C40   1.276       .  A
O29         Cd32   2.072       .  S
Zn30         O41   2.048       .  S
Zn30         O43   1.917       .  S
Zn30         O35   1.905       .  S
O31          C42   1.273       .  A
O31         Cd36   2.061       .  S
Cd32         O34   1.992       .  S
Cd32         O35   1.961       .  S
Cd33         O37   2.153       .  S
Cd33         O46   2.151       .  S
Cd33         O35   2.065       .  S
O34          C44   1.265       .  A
O35         Cd36   1.949       .  S
Cd36         O38   2.042       .  S
O37          C44   1.284       .  A
C39          O43   1.262       .  A
C39          C83   1.480       .  S
C40         C394   1.488       .  S
C42         C358   1.486       .  S
C44         C387   1.479       .  S
C45          O46   1.284       .  A
C45         C286   1.482       .  S
O47          C63   1.278       .  A
O47         Zn53   2.019       .  S
C48          O64   1.277       .  A
C48          O61   1.271       .  A
C48          C72   1.483       .  S
O49          C62   1.285       .  A
O49         Cd56   2.157       .  S
O50          C68   1.263       .  A
O50         Cd59   1.986       .  S
O51          C65   1.272       .  A
O51         Cd55   2.055       .  S
O52          C63   1.275       .  A
O52         Cd55   2.075       .  S
Zn53         O64   2.055       .  S
Zn53         O66   1.934       .  S
Zn53         O58   1.909       .  S
O54          C65   1.274       .  A
O54         Cd59   2.053       .  S
Cd55         O57   1.994       .  S
Cd55         O58   1.977       .  S
Cd56         O60   2.162       .  S
Cd56         O69   2.154       .  S
Cd56         O58   2.060       .  S
O57          C67   1.264       .  A
O58         Cd59   1.961       .  S
Cd59         O61   2.042       .  S
O60          C67   1.286       .  A
C62          O66   1.266       .  A
C62         C396   1.489       .  S
C63          C81   1.486       .  S
C65         C201   1.477       .  S
C67         C210   1.483       .  S
C68          O69   1.285       .  A
C68         C331   1.478       .  S
C70          C71   1.415   1_556  A
C70          C75   1.416       .  A
C70         C893   1.485       .  S
C71          C72   1.396       .  A
C71          H76   1.083       .  S
C72          C73   1.404       .  A
C73          C74   1.406   1_554  A
C73          H77   1.085       .  S
C74         C109   1.484       .  S
C74          C75   1.405       .  A
C75          H78   1.084       .  S
C79          C80   1.414       .  A
C79          C84   1.411       .  A
C79         C890   1.477       .  S
C80          C81   1.402   1_455  A
C80          H85   1.083       .  S
C81          C82   1.401       .  A
C82          C83   1.406       .  A
C82          H86   1.085       .  S
C83          C84   1.401   1_655  A
C84          H87   1.084       .  S
O88         C104   1.276       .  A
O88         Zn94   2.024       .  S
C89         O105   1.278       .  A
C89         O102   1.271       .  A
C89         C333   1.478       .  S
O90         C103   1.286       .  A
O90         Cd97   2.161       .  S
O91         C109   1.263       .  A
O91        Cd100   1.995       .  S
O92         C106   1.275       .  A
O92         Cd96   2.080       .  S
O93         C104   1.278       .  A
O93         Cd96   2.084       .  S
Zn94        O105   2.048       .  S
Zn94        O107   1.924       .  S
Zn94         O99   1.921       .  S
O95         C106   1.274       .  A
O95        Cd100   2.059       .  S
Cd96         O98   1.979       .  S
Cd96         O99   1.972       .  S
Cd97        O101   2.141       .  S
Cd97        O110   2.166       .  S
Cd97         O99   2.056       .  S
O98         C108   1.261       .  A
O99        Cd100   1.963       .  S
Cd100       O102   2.035       .  S
O101        C108   1.284       .  A
C103        O107   1.262       .  A
C103        C136   1.486       .  S
C104        C145   1.494       .  S
C106        C378   1.485       .  S
C108        C369   1.467       .  S
C109        O110   1.286       .  A
O111        C127   1.278       .  A
O111       Zn117   2.038       .  S
C112        O128   1.280       .  A
C112        O125   1.276       .  A
C112        C154   1.492       .  S
O113        C126   1.287       .  A
O113       Cd120   2.172       .  S
O114        C132   1.265       .  A
O114       Cd123   2.005       .  S
O115        C129   1.275       .  A
O115       Cd119   2.070       .  S
O116        C127   1.276       .  A
O116       Cd119   2.083       .  S
Zn117       O128   2.052       .  S
Zn117       O130   1.942       .  S
Zn117       O122   1.924       .  S
O118        C129   1.279       .  A
O118       Cd123   2.094       .  S
Cd119       O121   1.992       .  S
Cd119       O122   1.989       .  S
Cd120       O124   2.176       .  S
Cd120       O133   2.168       .  S
Cd120       O122   2.058       .  S
O121        C131   1.263       .  A
O122       Cd123   1.984       .  S
Cd123       O125   2.077       .  S
O124        C131   1.289       .  A
C126        O130   1.264       .  A
C126        C147   1.495       .  S
C127        C138   1.496       .  S
C129        C181   1.487   1_545  S
C131        C174   1.485       .  S
C132        O133   1.288       .  A
C132        C322   1.485       .  S
C134        C135   1.406       .  A
C134        C139   1.412       .  A
C134        C885   1.474       .  S
C135        C136   1.399   1_554  A
C135        H140   1.084       .  S
C136        C137   1.416       .  A
C137        C138   1.407       .  A
C137        H141   1.084       .  S
C138        C139   1.403   1_556  A
C139        H142   1.084       .  S
C143        C144   1.406       .  A
C143        C148   1.416       .  A
C143        C881   1.481       .  S
C144        C145   1.401       .  A
C144        H149   1.084       .  S
C145        C146   1.408       .  A
C146        C147   1.416       .  A
C146        H150   1.084       .  S
C147        C148   1.407       .  A
C148        H151   1.083       .  S
C152        C153   1.408   1_565  A
C152        C157   1.398       .  A
C152        C877   1.467   1_565  S
C153        C154   1.404       .  A
C153        H158   1.084       .  S
C154        C155   1.418   1_545  A
C155        C156   1.415       .  A
C155        H159   1.084       .  S
C156        C239   1.484       .  S
C156        C157   1.393       .  A
C157        H160   1.085       .  S
C161        C162   1.402       .  A
C161        C166   1.407   1_565  A
C161        C873   1.470       .  S
C162        C163   1.400       .  A
C162        H167   1.085       .  S
C163        C277   1.481   1_655  S
C163        C164   1.408   1_655  A
C164        C165   1.409   1_465  A
C164        H168   1.084       .  S
C165        C231   1.481   1_655  S
C165        C166   1.401       .  A
C166        H169   1.083       .  S
C170        C171   1.418       .  A
C170        C175   1.414   1_554  A
C170        C869   1.480   1_554  S
C171        C172   1.404       .  A
C171        H176   1.083       .  S
C172        C236   1.487       .  S
C172        C173   1.409       .  A
C173        C174   1.406   1_554  A
C173        H177   1.086       .  S
C174        C175   1.399       .  A
C175        H178   1.085       .  S
C179        C180   1.407   1_554  A
C179        C184   1.399       .  A
C179        C865   1.467       .  S
C180        C181   1.399       .  A
C180        H185   1.084       .  S
C181        C182   1.414   1_566  A
C182        C183   1.413       .  A
C182        H186   1.084       .  S
C183        C216   1.480       .  S
C183        C184   1.396   1_545  A
C184        H187   1.085       .  S
C188        C189   1.416   1_545  A
C188        C193   1.410       .  A
C188        C861   1.470       .  S
C189        C190   1.400       .  A
C189        H194   1.083       .  S
C190        C276   1.484       .  S
C190        C191   1.406   1_565  A
C191        C192   1.407       .  A
C191        H195   1.086       .  S
C192        C230   1.482       .  S
C192        C193   1.396       .  A
C193        H196   1.084       .  S
C197        C198   1.400   1_655  A
C197        C202   1.396       .  A
C197        C857   1.455       .  S
C198        C199   1.394   1_556  A
C198        H203   1.084       .  S
C199        C233   1.472       .  S
C199        C200   1.411       .  A
C200        C201   1.410   1_455  A
C200        H204   1.084       .  S
C201        C202   1.396   1_554  A
C202        H205   1.084       .  S
C206        C207   1.419   1_655  A
C206        C211   1.413       .  A
C206        C853   1.483       .  S
C207        C208   1.406       .  A
C207        H212   1.083       .  S
C208        C235   1.481       .  S
C208        C209   1.403       .  A
C209        C210   1.406   1_455  A
C209        H213   1.086       .  S
C210        C211   1.399       .  A
C211        H214   1.084       .  S
O215        C231   1.274       .  A
O215       Zn221   2.018       .  S
C216        O232   1.277       .  A
C216        O229   1.273       .  A
O217        C230   1.287       .  A
O217       Cd224   2.167       .  S
O218        C236   1.263       .  A
O218       Cd227   1.990       .  S
O219        C233   1.271       .  A
O219       Cd223   2.046       .  S
O220        C231   1.273       .  A
O220       Cd223   2.067       .  S
Zn221       O232   2.031       .  S
Zn221       O234   1.908       .  S
Zn221       O226   1.904       .  S
O222        C233   1.277       .  A
O222       Cd227   2.072       .  S
Cd223       O225   1.994       .  S
Cd223       O226   1.966       .  S
Cd224       O228   2.173       .  S
Cd224       O237   2.185       .  S
Cd224       O226   2.052       .  S
O225        C235   1.264       .  A
O226       Cd227   1.973       .  S
Cd227       O229   2.063       .  S
O228        C235   1.289       .  A
C230        O234   1.261       .  A
C236        O237   1.290       .  A
O238        C254   1.276       .  A
O238       Zn244   2.029       .  S
C239        O255   1.278       .  A
C239        O252   1.273       .  A
O240        C253   1.285       .  A
O240       Cd247   2.152       .  S
O241        C259   1.264       .  A
O241       Cd250   2.008       .  S
O242        C256   1.272       .  A
O242       Cd246   2.044       .  S
O243        C254   1.273       .  A
O243       Cd246   2.080       .  S
Zn244       O255   2.032       .  S
Zn244       O257   1.905       .  S
Zn244       O249   1.908       .  S
O245        C256   1.278       .  A
O245       Cd250   2.074       .  S
Cd246       O248   1.981       .  S
Cd246       O249   1.968       .  S
Cd247       O251   2.161       .  S
Cd247       O260   2.174       .  S
Cd247       O249   2.054       .  S
O248        C258   1.263       .  A
O249       Cd250   1.970       .  S
Cd250       O252   2.068       .  S
O251        C258   1.287       .  A
C253        O257   1.260       .  A
C253        C340   1.477       .  S
C254        C349   1.492       .  S
C256        C295   1.471       .  S
C258        C304   1.480       .  S
C259        O260   1.288       .  A
C259        C324   1.487       .  S
O261        C277   1.273       .  A
O261       Zn267   2.015       .  S
C262        O278   1.277       .  A
C262        O275   1.273       .  A
C262        C297   1.479       .  S
O263        C276   1.287       .  A
O263       Cd270   2.171       .  S
O264        C282   1.264       .  A
O264       Cd273   1.991       .  S
O265        C279   1.273       .  A
O265       Cd269   2.039       .  S
O266        C277   1.272       .  A
O266       Cd269   2.063       .  S
Zn267       O278   2.013       .  S
Zn267       O280   1.918       .  S
Zn267       O272   1.906       .  S
O268        C279   1.275       .  A
O268       Cd273   2.076       .  S
Cd269       O271   1.984       .  S
Cd269       O272   1.951       .  S
Cd270       O274   2.156       .  S
Cd270       O283   2.165       .  S
Cd270       O272   2.056       .  S
O271        C281   1.264       .  A
O272       Cd273   1.967       .  S
Cd273       O275   2.048       .  S
O274        C281   1.286       .  A
C276        O280   1.261       .  A
C279        C288   1.483       .  S
C281        C313   1.480       .  S
C282        O283   1.287       .  A
C282        C306   1.479       .  S
C284        C285   1.413       .  A
C284        C289   1.408   1_655  A
C284        C849   1.466   1_655  S
C285        C286   1.403       .  A
C285        H290   1.083       .  S
C286        C287   1.406       .  A
C287        C288   1.399   1_655  A
C287        H291   1.084       .  S
C288        C289   1.396       .  A
C289        H292   1.084       .  S
C293        C294   1.398       .  A
C293        C298   1.403       .  A
C293        C846   1.459       .  S
C294        C295   1.393   1_545  A
C294        H299   1.083       .  S
C295        C296   1.410       .  A
C296        C297   1.409       .  A
C296        H300   1.084       .  S
C297        C298   1.395   1_565  A
C298        H301   1.084       .  S
C302        C303   1.414       .  A
C302        C307   1.420       .  A
C302        C841   1.483       .  S
C303        C304   1.399       .  A
C303        H308   1.084       .  S
C304        C305   1.402       .  A
C305        C306   1.398       .  A
C305        H309   1.087       .  S
C306        C307   1.406       .  A
C307        H310   1.083       .  S
C311        C312   1.412       .  A
C311        C316   1.415   1_455  A
C311        C837   1.477       .  S
C312        C313   1.399       .  A
C312        H317   1.084       .  S
C313        C314   1.405       .  A
C314        C315   1.402   1_455  A
C314        H318   1.085   1_455  S
C315        C316   1.400       .  A
C316        H319   1.083       .  S
C320        C321   1.414       .  A
C320        C325   1.419   1_545  A
C320        C833   1.484       .  S
C321        C322   1.399       .  A
C321        H326   1.084       .  S
C322        C323   1.405   1_545  A
C323        C324   1.407       .  A
C323        H327   1.086       .  S
C324        C325   1.407       .  A
C325        H328   1.083       .  S
C329        C330   1.410       .  A
C329        C334   1.412   1_554  A
C329        C830   1.475       .  S
C330        C331   1.401       .  A
C330        H335   1.084       .  S
C331        C332   1.407       .  A
C332        C333   1.403   1_554  A
C332        H336   1.085       .  S
C333        C334   1.392       .  A
C334        H337   1.083       .  S
C338        C339   1.407       .  A
C338        C343   1.409       .  A
C338        C825   1.469       .  S
C339        C340   1.399       .  A
C339        H344   1.084       .  S
C340        C341   1.411       .  A
C341        C342   1.404       .  A
C341        H345   1.085       .  S
C342        C343   1.392       .  A
C343        H346   1.084       .  S
C347        C348   1.415       .  A
C347        C352   1.413       .  A
C347        C822   1.484       .  S
C348        C349   1.403       .  A
C348        H353   1.083       .  S
C349        C350   1.403       .  A
C350        C351   1.410       .  A
C350        H354   1.085       .  S
C351        C352   1.402       .  A
C352        H355   1.084       .  S
C356        C357   1.413       .  A
C356        C361   1.406       .  A
C356        C817   1.481       .  S
C357        C358   1.405       .  A
C357        H362   1.083       .  S
C358        C359   1.404       .  A
C359        C360   1.404       .  A
C359        H363   1.084       .  S
C360        C361   1.397       .  A
C361        H364   1.084       .  S
C365        C366   1.416       .  A
C365        C370   1.408       .  A
C365        C813   1.473       .  S
C366        C367   1.400       .  A
C366        H371   1.083       .  S
C367        C368   1.406       .  A
C368        C369   1.400       .  A
C368        H372   1.086       .  S
C369        C370   1.395       .  A
C370        H373   1.084       .  S
C374        C375   1.405       .  A
C374        C379   1.401       .  A
C374        C809   1.471       .  S
C375        C376   1.403       .  A
C375        H380   1.084       .  S
C376        C377   1.412       .  A
C377        C378   1.411       .  A
C377        H381   1.084       .  S
C378        C379   1.400       .  A
C379        H382   1.085       .  S
C383        C384   1.415       .  A
C383        C388   1.420       .  A
C383        C805   1.480       .  S
C384        C385   1.398       .  A
C384        H389   1.084       .  S
C385        C386   1.397       .  A
C386        C387   1.399       .  A
C386        H390   1.087       .  S
C387        C388   1.406       .  A
C388        H391   1.083       .  S
C392        C393   1.408       .  A
C392        C397   1.417       .  A
C392        C802   1.478       .  S
C393        C394   1.400       .  A
C393        H398   1.084       .  S
C394        C395   1.401       .  A
C395        C396   1.409       .  A
C395        H399   1.084       .  S
C396        C397   1.405       .  A
C397        H400   1.083       .  S
O401        C417   1.278       .  A
O401       Zn407   2.042       .  S
C402        O418   1.275       .  A
C402        O415   1.272       .  A
C402        C661   1.484       .  S
O403        C416   1.287       .  A
O403       Cd410   2.166       .  S
O404        C422   1.264       .  A
O404       Cd413   1.986       .  S
O405        C419   1.271       .  A
O405       Cd409   2.046       .  S
O406        C417   1.267       .  A
O406       Cd409   2.022       .  S
Zn407       O418   2.020       .  S
Zn407       O420   1.915       .  S
Zn407       O412   1.903       .  S
O408        C419   1.271       .  A
O408       Cd413   2.041       .  S
Cd409       O411   1.981       .  S
Cd409       O412   1.957       .  S
Cd410       O414   2.181       .  S
Cd410       O423   2.180       .  S
Cd410       O412   2.055       .  S
O411        C421   1.262       .  A
O412       Cd413   1.957       .  S
Cd413       O415   2.056       .  S
O414        C421   1.290       .  A
C416        O420   1.263       .  A
C416        C650   1.484       .  S
C417        C686   1.469       .  S
C419        C767   1.472       .  S
C421        C677   1.482       .  S
C422        O423   1.289       .  A
C422        C524   1.490       .  S
O424        C440   1.277       .  A
O424       Zn430   2.043       .  S
C425        O441   1.275       .  A
C425        O438   1.275       .  A
C425        C670   1.485       .  S
O426        C439   1.286       .  A
O426       Cd433   2.165       .  S
O427        C445   1.261       .  A
O427       Cd436   1.975       .  S
O428        C442   1.277       .  A
O428       Cd432   2.091       .  S
O429        C440   1.275       .  A
O429       Cd432   2.058       .  S
Zn430       O441   2.015       .  S
Zn430       O443   1.941       .  S
Zn430       O435   1.920       .  S
O431        C442   1.273       .  A
O431       Cd436   2.069       .  S
Cd432       O434   1.990       .  S
Cd432       O435   1.968       .  S
Cd433       O437   2.141       .  S
Cd433       O446   2.158       .  S
Cd433       O435   2.062       .  S
O434        C444   1.265       .  A
O435       Cd436   1.970       .  S
Cd436       O438   2.064       .  S
O437        C444   1.284       .  A
C439        O443   1.264       .  A
C439        C722   1.491       .  S
C440        C451   1.482       .  S
C442        C749   1.485       .  S
C444        C760   1.474       .  S
C445        O446   1.285       .  A
C445        C706   1.479       .  S
C447        C448   1.420       .  A
C447        C452   1.409       .  A
C447        C882   1.483       .  S
C448        C449   1.409       .  A
C448        H453   1.083       .  S
C449        C476   1.486       .  S
C449        C450   1.408       .  A
C450        C451   1.402       .  A
C450        H454   1.086       .  S
C451        C452   1.396       .  A
C452        H455   1.084       .  S
O456        C472   1.275       .  A
O456       Zn462   2.038       .  S
C457        O473   1.275       .  A
C457        O470   1.270       .  A
C457        C733   1.476       .  S
O458        C471   1.286       .  A
O458       Cd465   2.172       .  S
O459        C477   1.263       .  A
O459       Cd468   1.984       .  S
O460        C474   1.274       .  A
O460       Cd464   2.063       .  S
O461        C472   1.273       .  A
O461       Cd464   2.045       .  S
Zn462       O473   2.000       .  S
Zn462       O475   1.904       .  S
Zn462       O467   1.903       .  S
O463        C474   1.270       .  A
O463       Cd468   2.029       .  S
Cd464       O466   2.000       .  S
Cd464       O467   1.953       .  S
Cd465       O469   2.172       .  S
Cd465       O478   2.176       .  S
Cd465       O467   2.060       .  S
O466        C476   1.266       .  A
O467       Cd468   1.964       .  S
Cd468       O470   2.056       .  S
O469        C476   1.288       .  A
C471        O475   1.261       .  A
C471        C483   1.483       .  S
C472        C758   1.485       .  S
C474        C769   1.465       .  S
C477        O478   1.289       .  A
C477        C522   1.480       .  S
C479        C480   1.409       .  A
C479        C484   1.418       .  A
C479        C801   1.479       .  S
C480        C481   1.395       .  A
C480        H485   1.085       .  S
C481        C498   1.481       .  S
C481        C482   1.401       .  A
C482        C483   1.408       .  A
C482        H486   1.085       .  S
C483        C484   1.407       .  A
C484        H487   1.083       .  S
C488        C489   1.398       .  A
C488        C493   1.406       .  A
C488        C826   1.464       .  S
C489        C490   1.395   1_556  A
C489        H494   1.085       .  S
C490        C515   1.478       .  S
C490        C491   1.411       .  A
C491        C492   1.412       .  A
C491        H495   1.084       .  S
C492        C530   1.481       .  S
C492        C493   1.400   1_554  A
C493        H496   1.084       .  S
O497        C513   1.277       .  A
O497       Zn503   2.055       .  S
C498        O514   1.277       .  A
C498        O511   1.277       .  A
O499        C512   1.280       .  A
O499       Cd506   2.133       .  S
O500        C518   1.266       .  A
O500       Cd509   2.009       .  S
O501        C515   1.276       .  A
O501       Cd505   2.062       .  S
O502        C513   1.273       .  A
O502       Cd505   2.057       .  S
Zn503       O514   2.014       .  S
Zn503       O516   1.922       .  S
Zn503       O508   1.903       .  S
O504        C515   1.274       .  A
O504       Cd509   2.066       .  S
Cd505       O507   1.988       .  S
Cd505       O508   1.962       .  S
Cd506       O510   2.135       .  S
Cd506       O519   2.155       .  S
Cd506       O508   2.054       .  S
O507        C517   1.264       .  A
O508       Cd509   1.974       .  S
Cd509       O511   2.080       .  S
O510        C517   1.283       .  A
C512        O516   1.264       .  A
C512        C731   1.473       .  S
C513        C740   1.491       .  S
C517        C713   1.475       .  S
C518        O519   1.286       .  A
C518        C697   1.482       .  S
C520        C521   1.416       .  A
C520        C525   1.420       .  A
C520        C842   1.484       .  S
C521        C522   1.402       .  A
C521        H526   1.084       .  S
C522        C523   1.400       .  A
C523        C524   1.408       .  A
C523        H527   1.086       .  S
C524        C525   1.404       .  A
C525        H528   1.083       .  S
O529        C545   1.276       .  A
O529       Zn535   2.030       .  S
C530        O546   1.274       .  A
C530        O543   1.276       .  A
O531        C544   1.284       .  A
O531       Cd538   2.154       .  S
O532        C550   1.262       .  A
O532       Cd541   1.983       .  S
O533        C547   1.279       .  A
O533       Cd537   2.084       .  S
O534        C545   1.276       .  A
O534       Cd537   2.071       .  S
Zn535       O546   2.018       .  S
Zn535       O548   1.920       .  S
Zn535       O540   1.910       .  S
O536        C547   1.271       .  A
O536       Cd541   2.061       .  S
Cd537       O539   1.988       .  S
Cd537       O540   1.969       .  S
Cd538       O542   2.159       .  S
Cd538       O551   2.150       .  S
Cd538       O540   2.053       .  S
O539        C549   1.263       .  A
O540       Cd541   1.968       .  S
Cd541       O543   2.072       .  S
O542        C549   1.286       .  A
C544        O548   1.262       .  A
C544        C695   1.477       .  S
C545        C751   1.485       .  S
C547        C785   1.484       .  S
C549        C704   1.479       .  S
C550        O551   1.285       .  A
C550        C556   1.471       .  S
C552        C553   1.418   1_554  A
C552        C557   1.408       .  A
C552        C894   1.472       .  S
C553        C554   1.406       .  A
C553        H558   1.083       .  S
C554        C613   1.483       .  S
C554        C555   1.403   1_556  A
C555        C556   1.402       .  A
C555        H559   1.086       .  S
C556        C557   1.394       .  A
C557        H560   1.084       .  S
O561        C577   1.274       .  A
O561       Zn567   2.001       .  S
C562        O578   1.270       .  A
C562        O575   1.277       .  A
C562        C586   1.487       .  S
O563        C576   1.289       .  A
O563       Cd570   2.186       .  S
O564        C582   1.263       .  A
O564       Cd573   1.983       .  S
O565        C579   1.276       .  A
O565       Cd569   2.083       .  S
O566        C577   1.275       .  A
O566       Cd569   2.062       .  S
Zn567       O578   1.997       .  S
Zn567       O580   1.930       .  S
Zn567       O572   1.913       .  S
O568        C579   1.277       .  A
O568       Cd573   2.076       .  S
Cd569       O571   1.998       .  S
Cd569       O572   1.980       .  S
Cd570       O574   2.184       .  S
Cd570       O583   2.165       .  S
Cd570       O572   2.061       .  S
O571        C581   1.264       .  A
O572       Cd573   1.978       .  S
Cd573       O575   2.097       .  S
O574        C581   1.290       .  A
C576        O580   1.262       .  A
C576        C796   1.497       .  S
C577        C688   1.476       .  S
C579        C724   1.492       .  S
C581        C679   1.493       .  S
C582        O583   1.288       .  A
C582        C668   1.483       .  S
C584        C585   1.412   1_565  A
C584        C589   1.407       .  A
C584        C878   1.474       .  S
C585        C586   1.396       .  A
C585        H590   1.083       .  S
C586        C587   1.408   1_545  A
C587        C588   1.412       .  A
C587        H591   1.085   1_565  S
C588        C608   1.480       .  S
C588        C589   1.398       .  A
C589        H592   1.084       .  S
O593        C609   1.280       .  A
O593       Zn599   2.051       .  S
C594        O610   1.277       .  A
C594        O607   1.278       .  A
C594        C794   1.501       .  S
O595        C608   1.286       .  A
O595       Cd602   2.159       .  S
O596        C614   1.264       .  A
O596       Cd605   1.989       .  S
O597        C611   1.277       .  A
O597       Cd601   2.083       .  S
O598        C609   1.275       .  A
O598       Cd601   2.069       .  S
Zn599       O610   2.039       .  S
Zn599       O612   1.918       .  S
Zn599       O604   1.924       .  S
O600        C611   1.278       .  A
O600       Cd605   2.075       .  S
Cd601       O603   1.998       .  S
Cd601       O604   1.977       .  S
Cd602       O606   2.165       .  S
Cd602       O615   2.157       .  S
Cd602       O604   2.063       .  S
O603        C613   1.264       .  A
O604       Cd605   1.970       .  S
Cd605       O607   2.100       .  S
O606        C613   1.286       .  A
C608        O612   1.261       .  A
C609        C787   1.490       .  S
C611        C778   1.493       .  S
C614        O615   1.285       .  A
C614        C643   1.485       .  S
O616        C632   1.273       .  A
O616       Zn622   2.012       .  S
C617        O633   1.272       .  A
C617        O630   1.272       .  A
C617        C659   1.469       .  S
O618        C631   1.285       .  A
O618       Cd625   2.163       .  S
O619        C637   1.266       .  A
O619       Cd628   2.002       .  S
O620        C634   1.277       .  A
O620       Cd624   2.091       .  S
O621        C632   1.275       .  A
O621       Cd624   2.061       .  S
Zn622       O633   2.003       .  S
Zn622       O635   1.905       .  S
Zn622       O627   1.909       .  S
O623        C634   1.272       .  A
O623       Cd628   2.040       .  S
Cd624       O626   1.983       .  S
Cd624       O627   1.973       .  S
Cd625       O629   2.160       .  S
Cd625       O638   2.172       .  S
Cd625       O627   2.062       .  S
O626        C636   1.263       .  A
O627       Cd628   1.960       .  S
Cd628       O630   2.057       .  S
O629        C636   1.287       .  A
C631        O635   1.259       .  A
C631        C652   1.478       .  S
C632        C641   1.486       .  S
C634        C715   1.483       .  S
C636        C776   1.482       .  S
C637        O638   1.288       .  A
C637        C742   1.490       .  S
C639        C640   1.413   1_655  A
C639        C644   1.413       .  A
C639        C850   1.484       .  S
C640        C641   1.398       .  A
C640        H645   1.082       .  S
C641        C642   1.400       .  A
C642        C643   1.411   1_455  A
C642        H646   1.084       .  S
C643        C644   1.403       .  A
C644        H647   1.084       .  S
C648        C649   1.413       .  A
C648        C653   1.417       .  A
C648        C810   1.476       .  S
C649        C650   1.399   1_655  A
C649        H654   1.084       .  S
C650        C651   1.407       .  A
C651        C652   1.401       .  A
C651        H655   1.086       .  S
C652        C653   1.399   1_455  A
C653        H656   1.083       .  S
C657        C658   1.400       .  A
C657        C662   1.410       .  A
C657        C814   1.473       .  S
C658        C659   1.394       .  A
C658        H663   1.084       .  S
C659        C660   1.404       .  A
C660        C661   1.407       .  A
C660        H664   1.084       .  S
C661        C662   1.405       .  A
C662        H665   1.084       .  S
C666        C667   1.411       .  A
C666        C671   1.403       .  A
C666        C818   1.468       .  S
C667        C668   1.402   1_565  A
C667        H672   1.084       .  S
C668        C669   1.414       .  A
C669        C670   1.404       .  A
C669        H673   1.084       .  S
C670        C671   1.397   1_545  A
C671        H674   1.084       .  S
C675        C676   1.415       .  A
C675        C680   1.419   1_455  A
C675        C854   1.484       .  S
C676        C677   1.401       .  A
C676        H681   1.084       .  S
C677        C678   1.404   1_455  A
C678        C679   1.409       .  A
C678        H682   1.086       .  S
C679        C680   1.405       .  A
C680        H683   1.083       .  S
C684        C685   1.398       .  A
C684        C689   1.403   1_455  A
C684        C858   1.459       .  S
C685        C686   1.392       .  A
C685        H690   1.084       .  S
C686        C687   1.410   1_455  A
C687        C688   1.406       .  A
C687        H691   1.084       .  S
C688        C689   1.396       .  A
C689        H692   1.084       .  S
C693        C694   1.412       .  A
C693        C698   1.417       .  A
C693        C821   1.480       .  S
C694        C695   1.398       .  A
C694        H699   1.084       .  S
C695        C696   1.402       .  A
C696        C697   1.403       .  A
C696        H700   1.086       .  S
C697        C698   1.404       .  A
C698        H701   1.083       .  S
C702        C703   1.415   1_545  A
C702        C707   1.411       .  A
C702        C874   1.472       .  S
C703        C704   1.398       .  A
C703        H708   1.083       .  S
C704        C705   1.403   1_565  A
C705        C706   1.406       .  A
C705        H709   1.086       .  S
C706        C707   1.397       .  A
C707        H710   1.084       .  S
C711        C712   1.406       .  A
C711        C716   1.413   1_554  A
C711        C866   1.469       .  S
C712        C713   1.396       .  A
C712        H717   1.084       .  S
C713        C714   1.406   1_554  A
C714        C715   1.403       .  A
C714        H718   1.085       .  S
C715        C716   1.397       .  A
C716        H719   1.083       .  S
C720        C721   1.415       .  A
C720        C725   1.414       .  A
C720        C806   1.487       .  S
C721        C722   1.406       .  A
C721        H726   1.084       .  S
C722        C723   1.412       .  A
C723        C724   1.404       .  A
C723        H727   1.084       .  S
C724        C725   1.401       .  A
C725        H728   1.083       .  S
C729        C730   1.414       .  A
C729        C734   1.413       .  A
C729        C889   1.480       .  S
C730        C731   1.403       .  A
C730        H735   1.084       .  S
C731        C732   1.398       .  A
C732        C733   1.395       .  A
C732        H736   1.086       .  S
C733        C734   1.399       .  A
C734        H737   1.083       .  S
C738        C739   1.415       .  A
C738        C743   1.415   1_554  A
C738        C870   1.484       .  S
C739        C740   1.400       .  A
C739        H744   1.083       .  S
C740        C741   1.404   1_554  A
C741        C742   1.411       .  A
C741        H745   1.085       .  S
C742        C743   1.405       .  A
C743        H746   1.084       .  S
C747        C748   1.408   1_565  A
C747        C752   1.404       .  A
C747        C862   1.473       .  S
C748        C749   1.399       .  A
C748        H753   1.084       .  S
C749        C750   1.412   1_545  A
C750        C751   1.412       .  A
C750        H754   1.084       .  S
C751        C752   1.401       .  A
C752        H755   1.084       .  S
C756        C757   1.415       .  A
C756        C761   1.410       .  A
C756        C886   1.476       .  S
C757        C758   1.403       .  A
C757        H762   1.083       .  S
C758        C759   1.403       .  A
C759        C760   1.402       .  A
C759        H763   1.085       .  S
C760        C761   1.396       .  A
C761        H764   1.084       .  S
C765        C766   1.399       .  A
C765        C770   1.403       .  A
C765        C845   1.457       .  S
C766        C767   1.397       .  A
C766        H771   1.083       .  S
C767        C768   1.404       .  A
C768        C769   1.403       .  A
C768        H772   1.084       .  S
C769        C770   1.392       .  A
C770        H773   1.084       .  S
C774        C775   1.407       .  A
C774        C779   1.413   1_455  A
C774        C838   1.473   1_455  S
C775        C776   1.398   1_554  A
C775        H780   1.084       .  S
C776        C777   1.412       .  A
C777        C778   1.405   1_455  A
C777        H781   1.084       .  S
C778        C779   1.402   1_556  A
C779        H782   1.083       .  S
C783        C784   1.398   1_556  A
C783        C788   1.407       .  A
C783        C829   1.465       .  S
C784        C785   1.394   1_545  A
C784        H789   1.085       .  S
C785        C786   1.415   1_554  A
C786        C787   1.417       .  A
C786        H790   1.084       .  S
C787        C788   1.403   1_565  A
C788        H791   1.084       .  S
C792        C793   1.415       .  A
C792        C797   1.414   1_565  A
C792        C834   1.487       .  S
C793        C794   1.403   1_455  A
C793        H798   1.083       .  S
C794        C795   1.409   1_565  A
C795        C796   1.418       .  A
C795        H799   1.084       .  S
C796        C797   1.405   1_655  A
C797        H800   1.084       .  S
C801        C802   1.339       .  D
C801        H803   1.088       .  S
C802        H804   1.088       .  S
C805        C806   1.347       .  D
C805        H807   1.088       .  S
C806        H808   1.087       .  S
C809        C810   1.340       .  D
C809        H811   1.087       .  S
C810        H812   1.088       .  S
C813        C814   1.339       .  D
C813        H815   1.086       .  S
C814        H816   1.086       .  S
C817        C818   1.341       .  D
C817        H819   1.087       .  S
C818        H820   1.085       .  S
C821        C822   1.345       .  D
C821        H823   1.087       .  S
C822        H824   1.087       .  S
C825        C826   1.339       .  D
C825        H827   1.087       .  S
C826        H828   1.088       .  S
C829        C830   1.340   1_556  D
C829        H831   1.087       .  S
C830        H832   1.087       .  S
C833        C834   1.347   1_545  D
C833        H835   1.088       .  S
C834        H836   1.087       .  S
C837        C838   1.342   1_455  D
C837        H839   1.088       .  S
C838        H840   1.087       .  S
C841        C842   1.344       .  D
C841        H843   1.088       .  S
C842        H844   1.088       .  S
C845        C846   1.336       .  D
C845        H847   1.086       .  S
C846        H848   1.086       .  S
C849        C850   1.344   1_455  D
C849        H851   1.086       .  S
C850        H852   1.088       .  S
C853        C854   1.344   1_655  D
C853        H855   1.088       .  S
C854        H856   1.088       .  S
C857        C858   1.334   1_655  D
C857        H859   1.087       .  S
C858        H860   1.087       .  S
C861        C862   1.340   1_545  D
C861        H863   1.088       .  S
C862        H864   1.088       .  S
C865        C866   1.338       .  D
C865        H867   1.088   1_554  S
C866        H868   1.088       .  S
C869        C870   1.346   1_556  D
C869        H871   1.088       .  S
C870        H872   1.087       .  S
C873        C874   1.339   1_565  D
C873        H875   1.088       .  S
C874        H876   1.088       .  S
C877        C878   1.338   1_545  D
C877        H879   1.087       .  S
C878        H880   1.087       .  S
C881        C882   1.340       .  D
C881        H883   1.087       .  S
C882        H884   1.088       .  S
C885        C886   1.342       .  D
C885        H887   1.086       .  S
C886        H888   1.088       .  S
C889        C890   1.345       .  D
C889        H891   1.087       .  S
C890        H892   1.087       .  S
C893        C894   1.344   1_556  D
C893        H895   1.087       .  S
C894        H896   1.086       .  S
