geometry optimzed in LAMMPS
_audit_creation_date              2020-11-30 
_audit_creation_method            'lammps2cif' 
_symmetry_space_group_name_H-M    'P1' 
_symmetry_Int_Tables_number       1 
_symmetry_cell_setting            triclinic 
loop_ 
_symmetry_equiv_pos_as_xyz 
  x,y,z 
_cell_length_a                    33.199969416405004 
_cell_length_b                    33.08594716539564 
_cell_length_c                    31.55041033340893 
_cell_angle_alpha                 89.59703966592456 
_cell_angle_beta                  90.4271486799282 
_cell_angle_gamma                 90.12809400224492 
loop_ 
_atom_site_label 
_atom_site_type_symbol 
_atom_site_fract_x 
_atom_site_fract_y 
_atom_site_fract_z 
_atom_site_charge 
In1        In  0.24802611  0.64139265  0.12389138     1.36870
C2          C  0.24547831  0.69160636  0.05759530     0.77650
O3          O  0.21863750  0.68492215  0.16769809    -0.60790
O4          O  0.28165626  0.67608391  0.17465785    -0.51700
C5          C  0.19142687  0.58955778  0.14868247     0.70320
O6          O  0.19034610  0.60691803  0.11292555    -0.46560
C7          C  0.30477210  0.58924403  0.10190173     0.75020
O8          O  0.21396810  0.67750558  0.07418079    -0.58420
O9          O  0.30813089  0.61132203  0.13425740    -0.48510
O10         O  0.27778101  0.68045649  0.07509181    -0.54850
C11         C  0.25040396  0.69351073  0.18771334     0.85200
O12         O  0.22204324  0.59794332  0.17085685    -0.56750
O13         O  0.27187777  0.59314327  0.08207208    -0.60040
In14       In  0.24728470  0.77102223  0.28973888     1.36870
C15         C  0.24522483  0.71898639  0.02096384     0.77650
O16         O  0.21784262  0.73248644  0.24035705    -0.60790
O17         O  0.28158835  0.73505633  0.24092062    -0.51700
C18         C  0.18928165  0.82305109  0.26905462     0.70320
O19         O  0.18588408  0.79785749  0.29904945    -0.46560
C20         C  0.30407662  0.82220591  0.31552996     0.75020
O21         O  0.21407158  0.73695895  0.00774176    -0.58420
O22         O  0.30352009  0.80778524  0.27857029    -0.48510
O23         O  0.27678808  0.72683825  0.00060943    -0.54850
C24         C  0.25015735  0.72108547  0.22380877     0.85200
O25         O  0.22288139  0.82225123  0.25065803    -0.56750
O26         O  0.27486605  0.81146895  0.00499755    -0.60040
In27       In  0.31219484  0.20609364  0.20920664     1.36870
C28         C  0.26207804  0.20389311  0.27479325     0.77650
O29         O  0.36209035  0.22982814  0.25001526    -0.60790
O30         O  0.34082549  0.26699283  0.19956398    -0.51700
C31         C  0.36364426  0.14935862  0.18532624     0.70320
O32         O  0.34523749  0.14753712  0.22018567    -0.46560
C33         C  0.26111445  0.20860896  0.14391661     0.75020
O34         O  0.27606881  0.17217887  0.25871076    -0.58420
O35         O  0.27790610  0.23997651  0.15808507    -0.48510
O36         O  0.27343084  0.23615132  0.25729566    -0.54850
C37         C  0.36456402  0.26330360  0.23080255     0.85200
O38         O  0.35638806  0.18072942  0.16365659    -0.56750
O39         O  0.26982817  0.17652112  0.16350649    -0.60040
In40       In  0.18319061  0.20675971  0.04169668     1.36870
C41         C  0.23466331  0.20399155  0.31090150     0.77650
O42         O  0.13844601  0.23214592  0.32894001    -0.60790
O43         O  0.15091048  0.26572857  0.05121896    -0.51700
C44         C  0.13136459  0.14994703  0.06570380     0.70320
O45         O  0.15136631  0.14747427  0.03193057    -0.46560
C46         C  0.23384064  0.20874995  0.10731016     0.75020
O47         O  0.21746574  0.17269754  0.32496963    -0.58420
O48         O  0.21882226  0.24047924  0.09154312    -0.48510
O49         O  0.22611840  0.23605903  0.99667748    -0.54850
C50         C  0.13202243  0.26385890  0.01639451     0.85200
O51         O  0.13695456  0.18218857  0.08604548    -0.56750
O52         O  0.22350161  0.17656901  0.08920942    -0.60040
In53       In  0.74777336  0.14111688  0.29104952     1.36870
C54         C  0.74570378  0.19224526  0.22563598     0.77650
O55         O  0.71772615  0.18036200  0.33880267    -0.60790
O56         O  0.78137971  0.17709245  0.00742866    -0.51700
C57         C  0.68945452  0.09062283  0.31340812     0.70320
O58         O  0.68572408  0.11588836  0.28348833    -0.46560
C59         C  0.80506881  0.09022766  0.26838079     0.75020
O60         O  0.71467938  0.17410622  0.23839371    -0.58420
O61         O  0.80843372  0.11271109  0.30032677    -0.48510
O62         O  0.77731707  0.18419323  0.24605618    -0.54850
C63         C  0.74985738  0.19176563  0.02291414     0.85200
O64         O  0.72380347  0.09016075  0.99761163    -0.56750
O65         O  0.77171365  0.09232368  0.24909108    -0.60040
In66       In  0.74807010  0.27050533  0.12346653     1.36870
C67         C  0.74992515  0.21976778  0.05845886     0.77650
O68         O  0.77791396  0.23252268  0.17341954    -0.60790
O69         O  0.71421539  0.23394324  0.17261042    -0.51700
C70         C  0.80629498  0.32118297  0.14601713     0.70320
O71         O  0.81184774  0.29219461  0.12099322    -0.46560
C72         C  0.69042631  0.32133545  0.09979362     0.75020
O73         O  0.78065186  0.23904284  0.07041638    -0.58420
O74         O  0.68880653  0.30077421  0.13362573    -0.48510
O75         O  0.71866877  0.22660540  0.07937481    -0.54850
C76         C  0.74574400  0.22025519  0.18971504     0.85200
O77         O  0.77044178  0.32550666  0.15815905    -0.56750
O78         O  0.72243866  0.31687975  0.07890125    -0.60040
In79       In  0.68341441  0.70602722  0.20573544     1.36870
C80         C  0.73394990  0.70378696  0.14072403     0.77650
O81         O  0.63450170  0.73029089  0.16389018    -0.60790
O82         O  0.65404894  0.76636758  0.21542101    -0.51700
C83         C  0.63284681  0.64907527  0.23197645     0.70320
O84         O  0.64724486  0.64919245  0.19502895    -0.46560
C85         C  0.73486299  0.70861087  0.27035177     0.75020
O86         O  0.71868830  0.67209868  0.15622541    -0.58420
O87         O  0.71742010  0.73987841  0.25643253    -0.48510
O88         O  0.72376249  0.73595206  0.15865342    -0.54850
C89         C  0.63133903  0.76327742  0.18333318     0.85200
O90         O  0.64321394  0.67876649  0.25437902    -0.56750
O91         O  0.72683906  0.67662371  0.25058188    -0.60040
In92       In  0.81215060  0.70710780  0.03973590     1.36870
C93         C  0.76131863  0.70403649  0.10460014     0.77650
O94         O  0.86048675  0.73202107  0.08169717    -0.60790
O95         O  0.84106915  0.76781412  0.02939127    -0.51700
C96         C  0.86409821  0.65060306  0.01698662     0.70320
O97         O  0.84511351  0.64876089  0.05149466    -0.46560
C98         C  0.76193999  0.70876543  0.30707445     0.75020
O99         O  0.77668501  0.67260774  0.08932052    -0.58420
O100        O  0.77665330  0.74055756  0.32263432    -0.48510
O101        O  0.77149338  0.73639661  0.08650083    -0.54850
C102        C  0.86360286  0.76500214  0.06166439     0.85200
O103        O  0.85743903  0.68208937  0.32860625    -0.56750
O104        O  0.77229307  0.67661096  0.32560045    -0.60040
In105      In  0.99626505  0.95703062  0.16741237     1.36870
C106        C  0.93516222  0.99619668  0.20228149     0.77650
O107        O  0.02856111  0.01587661  0.17292484    -0.60790
O108        O  0.02409237  0.98901634  0.11193072    -0.51700
C109        C  0.05876457  0.92092174  0.20444997     0.70320
O110        O  0.02826813  0.93198084  0.22506633    -0.46560
C111        C  0.95884718  0.89585733  0.12911904     0.75020
O112        O  0.95643755  0.97139654  0.22310666    -0.58420
O113        O  0.96735471  0.92823798  0.10980297    -0.48510
O114        O  0.94483752  0.00034803  0.16402272    -0.54850
C115        C  0.03657722  0.01841301  0.13390663     0.85200
O116        O  0.05735694  0.92909004  0.16538605    -0.56750
O117        O  0.96960608  0.89516924  0.16737740    -0.60040
In118      In  0.99644323  0.45731890  0.24907640     1.36870
C119        C  0.05960418  0.49482484  0.21538628     0.77650
O120        O  0.96372156  0.51576018  0.24470839    -0.60790
O121        O  0.97055459  0.48934655  0.30570871    -0.51700
C122        C  0.93556281  0.41739599  0.21374074     0.70320
O123        O  0.95593802  0.44314613  0.19335116    -0.46560
C124        C  0.03675915  0.39631898  0.28364989     0.75020
O125        O  0.03338604  0.47718285  0.19284453    -0.58420
O126        O  0.02158201  0.42411775  0.30572971    -0.48510
O127        O  0.05328530  0.49278292  0.25467415    -0.54850
C128        C  0.95720944  0.51856649  0.28381428     0.85200
O129        O  0.94599774  0.41261171  0.25188950    -0.56750
O130        O  0.03113819  0.40014079  0.24418927    -0.60040
In131      In  0.49751736  0.95756395  0.08291079     1.36870
C132        C  0.53620231  0.89608191  0.11853541     0.77650
O133        O  0.43939478  0.92427065  0.08861805    -0.60790
O134        O  0.46386508  0.93140450  0.02708310    -0.51700
C135        C  0.46011866  0.01969051  0.11849501     0.70320
O136        O  0.47284552  0.98995362  0.14001121    -0.46560
C137        C  0.55868324  0.99447628  0.04494843     0.75020
O138        O  0.52671001  0.92725672  0.13916784    -0.58420
O139        O  0.52546718  0.98824749  0.02636028    -0.48510
O140        O  0.52559859  0.89667162  0.08002378    -0.54850
C141        C  0.43574322  0.91724535  0.04956845     0.85200
O142        O  0.46730955  0.01751719  0.07948302    -0.56750
O143        O  0.56068224  0.98123134  0.08241238    -0.60040
In144      In  0.49702853  0.45667200  0.33322968     1.36870
C145        C  0.46019607  0.39508521  0.29567546     0.77650
O146        O  0.55865930  0.43010071  0.33002653    -0.60790
O147        O  0.52717037  0.42531171  0.05496823    -0.51700
C148        C  0.53570119  0.51878895  0.29858949     0.70320
O149        O  0.52015847  0.49105830  0.27645890    -0.46560
C150        C  0.43586156  0.49406554  0.03697637     0.75020
O151        O  0.46885003  0.42729559  0.27599858    -0.58420
O152        O  0.46722856  0.48390257  0.05719643    -0.48510
O153        O  0.47109929  0.39441764  0.00068007    -0.54850
C154        C  0.55884926  0.41764099  0.03456760     0.85200
O155        O  0.53059913  0.51475710  0.00462208    -0.56750
O156        O  0.43599687  0.48456853  0.33175239    -0.60040
C157        C  0.90401683  0.61910585  0.29313503    -0.21240
C158        C  0.89058426  0.61797731  0.33518861    -0.09280
C159        C  0.90084203  0.58463140  0.02769221     0.29580
C160        C  0.92327462  0.55266461  0.01114872    -0.21240
C161        C  0.93550067  0.55328797  0.30194747    -0.09290
C162        C  0.92606134  0.58716837  0.27654272     0.29590
F163        F  0.93772566  0.58944576  0.23543842    -0.19810
H164        H  0.89658930  0.64439382  0.27255505     0.17950
H165        H  0.93038511  0.52705543  0.03139163     0.17960
F166        F  0.88888088  0.58262760  0.06869387    -0.19800
C167        C  0.91497568  0.79171146  0.11197433    -0.21240
C168        C  0.89053090  0.79789389  0.07603592    -0.09280
C169        C  0.89069676  0.83607663  0.05597737     0.29580
C170        C  0.91413333  0.86758523  0.07247976    -0.21240
C171        C  0.93732528  0.86166534  0.10937615    -0.09290
C172        C  0.93807054  0.82317549  0.12859507     0.29590
F173        F  0.96090081  0.81590457  0.16369917    -0.19810
H174        H  0.91563905  0.76260106  0.12787467     0.17950
H175        H  0.91307579  0.89699131  0.05722269     0.17960
F176        F  0.86731312  0.84343911  0.02132146    -0.19800
C177        C  0.58386151  0.59241621  0.22091110    -0.21240
C178        C  0.60695180  0.61639951  0.24850472    -0.09280
C179        C  0.60589112  0.60836359  0.29228844     0.29580
C180        C  0.58219162  0.57694380  0.30806331    -0.21240
C181        C  0.55911936  0.55278325  0.28065193    -0.09290
C182        C  0.55987654  0.56094303  0.23680274     0.29590
F183        F  0.53733772  0.53881392  0.20936907    -0.19810
H184        H  0.58420501  0.59821713  0.18710065     0.17950
H185        H  0.58250301  0.57108048  0.00854022     0.17960
F186        F  0.62894113  0.62988620  0.31982864    -0.19800
C187        C  0.55933108  0.82479053  0.11543676    -0.21240
C188        C  0.55840114  0.86160480  0.13723712    -0.09280
C189        C  0.57993253  0.86518329  0.17559959     0.29580
C190        C  0.60280722  0.83270694  0.19104693    -0.21240
C191        C  0.60441391  0.79614856  0.16869072    -0.09290
C192        C  0.58188309  0.79230313  0.13096312     0.29590
F193        F  0.58227632  0.75752422  0.10839705    -0.19810
H194        H  0.54281513  0.82121129  0.08596511     0.17950
H195        H  0.61995071  0.83648041  0.22008810     0.17960
F196        F  0.58017274  0.90043181  0.19735174    -0.19800
C197        C  0.58697163  0.36864035  0.08733476    -0.21240
C198        C  0.59310880  0.39507888  0.05301421    -0.09280
C199        C  0.63181360  0.39839816  0.03546902     0.29580
C200        C  0.66347356  0.37492801  0.05145792    -0.21240
C201        C  0.65718838  0.34774354  0.08514540    -0.09290
C202        C  0.61858425  0.34494336  0.10317460     0.29590
F203        F  0.61090861  0.31827338  0.13500548    -0.19810
H204        H  0.55732540  0.36539054  0.10110089     0.17950
H205        H  0.69292775  0.37779658  0.03717501     0.17960
F206        F  0.63915712  0.42447110  0.00300510    -0.19800
C207        C  0.83720149  0.38871929  0.16044837    -0.21240
C208        C  0.83963557  0.34637970  0.16169938    -0.09280
C209        C  0.87383848  0.32782278  0.17951576     0.29580
C210        C  0.90487245  0.35133484  0.19650688    -0.21240
C211        C  0.90286474  0.39359820  0.19464663    -0.09290
C212        C  0.86904674  0.41231678  0.17614057     0.29590
F213        F  0.86625950  0.45322383  0.17466716    -0.19810
H214        H  0.81084857  0.40339413  0.14702445     0.17950
H215        H  0.93068368  0.33655087  0.21097455     0.17960
F216        F  0.87647307  0.28692338  0.18194362    -0.19800
C217        C  0.58411151  0.05147806  0.00098377    -0.21240
C218        C  0.59214397  0.01680525  0.02533629    -0.09280
C219        C  0.63228978  0.00557231  0.03334002     0.29580
C220        C  0.66391077  0.02927203  0.01780458    -0.21240
C221        C  0.65594740  0.06453076  0.99420743    -0.09290
C222        C  0.61567512  0.07545219  0.98584305     0.29590
F223        F  0.60672663  0.11033434  0.29827618    -0.19810
H224        H  0.55330766  0.06093021  0.99518844     0.17950
H225        H  0.69466869  0.02021262  0.02448869     0.17960
F226        F  0.64088021  0.97154430  0.05590729    -0.19800
C227        C  0.83993660  0.02394985  0.26057556    -0.21240
C228        C  0.83856341  0.06573968  0.25297575    -0.09280
C229        C  0.86919519  0.08440195  0.22950844     0.29580
C230        C  0.90050520  0.06136394  0.21308687    -0.21240
C231        C  0.90226515  0.01963457  0.22088151    -0.09290
C232        C  0.87197359  0.00096287  0.24503208     0.29590
F233        F  0.87258516  0.96045739  0.25209927    -0.19810
H234        H  0.81627692  0.00925437  0.27846960     0.17950
H235        H  0.92365068  0.07615384  0.19450889     0.17960
F236        F  0.86838650  0.12484147  0.22191891    -0.19800
C237        C  0.08949792  0.11946175  0.12273325    -0.21240
C238        C  0.10481904  0.11727291  0.08144786    -0.09280
C239        C  0.09620090  0.08292077  0.05689874     0.29580
C240        C  0.07335509  0.05117185  0.07386474    -0.21240
C241        C  0.05905195  0.05292533  0.11561460    -0.09290
C242        C  0.06701058  0.08766206  0.13979518     0.29590
F243        F  0.05330631  0.09096893  0.18005306    -0.19810
H244        H  0.09566720  0.14553061  0.14232238     0.17950
H245        H  0.06749188  0.02485447  0.05455486     0.17960
F246        F  0.11012833  0.07972896  0.01672794    -0.19800
C247        C  0.06902535  0.32906102  0.27589031    -0.21240
C248        C  0.05943870  0.36186745  0.30190221    -0.09280
C249        C  0.07248311  0.36144224  0.01111788     0.29580
C250        C  0.09555498  0.32915489  0.02676577    -0.21240
C251        C  0.10559198  0.29662672  0.33380533    -0.09290
C252        C  0.09166070  0.29669819  0.29156656     0.29590
F253        F  0.10076744  0.26607911  0.26489360    -0.19810
H254        H  0.05920914  0.32852631  0.24309120     0.17950
H255        H  0.10591691  0.32980594  0.05937317     0.17960
F256        F  0.06388892  0.39257329  0.03731289    -0.19800
C257        C  0.42436997  0.05228833  0.17895023    -0.21240
C258        C  0.43774527  0.05393510  0.13682118    -0.09280
C259        C  0.42803645  0.08795597  0.11173859     0.29580
C260        C  0.40486996  0.11912574  0.12829664    -0.21240
C261        C  0.39053103  0.11708330  0.16999509    -0.09290
C262        C  0.40080562  0.08346570  0.19544566     0.29590
F263        F  0.38775288  0.08039970  0.23600455    -0.19810
H264        H  0.43141533  0.02643644  0.19887578     0.17950
H265        H  0.39742815  0.14460257  0.10798558     0.17960
F266        F  0.44044368  0.09105767  0.07093474    -0.19800
C267        C  0.44156343  0.32230769  0.29452381    -0.21240
C268        C  0.43835011  0.36095930  0.27623322    -0.09280
C269        C  0.41252417  0.36675665  0.24121241     0.29580
C270        C  0.38947621  0.33452781  0.22572980    -0.21240
C271        C  0.39187754  0.29605990  0.24479358    -0.09290
C272        C  0.41881346  0.29006624  0.27891345     0.29590
F273        F  0.42272351  0.25328458  0.29781250    -0.19810
H274        H  0.46146901  0.31711473  0.32136621     0.17950
H275        H  0.36886672  0.33998981  0.19955166     0.17960
F276        F  0.40797156  0.40391505  0.22332630    -0.19800
C277        C  0.34249901  0.85140151  0.04250013    -0.21240
C278        C  0.33687396  0.84817234  0.99853079    -0.09280
C279        C  0.36361102  0.86844738  0.30458374     0.29580
C280        C  0.39560244  0.89115982  0.32128464    -0.21240
C281        C  0.40147510  0.89392248  0.03200904    -0.09290
C282        C  0.37449375  0.87376413  0.05917182     0.29590
F283        F  0.37943309  0.87476168  0.10190832    -0.19810
H284        H  0.32257352  0.83573950  0.06416603     0.17950
H285        H  0.41583028  0.90653580  0.29972860     0.17960
F286        F  0.35866273  0.86666596  0.26189910    -0.19800
C287        C  0.08645818  0.87239651  0.25797610    -0.21240
C288        C  0.09291122  0.89892832  0.22379791    -0.09280
C289        C  0.13164096  0.90203462  0.20639449     0.29580
C290        C  0.16304462  0.87817511  0.22225828    -0.21240
C291        C  0.15639012  0.85045707  0.25542609    -0.09290
C292        C  0.11776119  0.84802395  0.27349069     0.29590
F293        F  0.10976737  0.82116957  0.30505726    -0.19810
H294        H  0.05671487  0.86932475  0.27155425     0.17950
H295        H  0.19248239  0.88083482  0.20789882     0.17960
F296        F  0.13914288  0.92809065  0.17395382    -0.19800
C297        C  0.15739717  0.55351742  0.20784744    -0.21240
C298        C  0.15896925  0.56284103  0.16442955    -0.09280
C299        C  0.12852763  0.54797210  0.13739369     0.29580
C300        C  0.09675892  0.52493743  0.15391906    -0.21240
C301        C  0.09458383  0.51676531  0.19761580    -0.09290
C302        C  0.12554205  0.53098148  0.22440642     0.29590
F303        F  0.12497447  0.52354645  0.26677163    -0.19810
H304        H  0.18041220  0.56459522  0.22936320     0.17950
H305        H  0.07339013  0.51423350  0.13262962     0.17960
F306        F  0.12927897  0.55581921  0.09512622    -0.19800
C307        C  0.36546326  0.51910955  0.03301805    -0.21240
C308        C  0.40171655  0.51588505  0.05595104    -0.09280
C309        C  0.40511245  0.53511735  0.09545859     0.29580
C310        C  0.37309461  0.55817119  0.11084725    -0.21240
C311        C  0.33717721  0.56216413  0.08729796    -0.09290
C312        C  0.33347248  0.54179865  0.04843923     0.29590
F313        F  0.29939431  0.54462528  0.02456280    -0.19810
H314        H  0.36198663  0.50444020  0.33596794     0.17950
H315        H  0.37671491  0.57354880  0.14081106     0.17960
F316        F  0.43974318  0.53291918  0.11848636    -0.19800
In317      In  0.24802613  0.64139265  0.45722471     1.36870
C318        C  0.24547833  0.69160636  0.39092863     0.77650
O319        O  0.21863751  0.68492214  0.50103142    -0.60790
O320        O  0.28165628  0.67608392  0.50799118    -0.51700
C321        C  0.19142687  0.58955779  0.48201580     0.70320
O322        O  0.19034612  0.60691803  0.44625887    -0.46560
C323        C  0.30477211  0.58924402  0.43523507     0.75020
O324        O  0.21396812  0.67750557  0.40751412    -0.58420
O325        O  0.30813090  0.61132202  0.46759074    -0.48510
O326        O  0.27778103  0.68045649  0.40842514    -0.54850
C327        C  0.25040397  0.69351074  0.52104667     0.85200
O328        O  0.22204325  0.59794333  0.50419018    -0.56750
O329        O  0.27187779  0.59314326  0.41540541    -0.60040
In330      In  0.24728469  0.77102224  0.62307221     1.36870
C331        C  0.24522485  0.71898639  0.35429718     0.77650
O332        O  0.21784262  0.73248644  0.57369037    -0.60790
O333        O  0.28158835  0.73505634  0.57425395    -0.51700
C334        C  0.18928163  0.82305109  0.60238793     0.70320
O335        O  0.18588406  0.79785749  0.63238276    -0.46560
C336        C  0.30407660  0.82220593  0.64886329     0.75020
O337        O  0.21407160  0.73695894  0.34107509    -0.58420
O338        O  0.30352008  0.80778526  0.61190361    -0.48510
O339        O  0.27678810  0.72683824  0.33394276    -0.54850
C340        C  0.25015735  0.72108547  0.55714210     0.85200
O341        O  0.22288137  0.82225123  0.58399135    -0.56750
O342        O  0.27486606  0.81146895  0.33833087    -0.60040
In343      In  0.31219484  0.20609363  0.54253997     1.36870
C344        C  0.26207803  0.20389311  0.60812658     0.77650
O345        O  0.36209035  0.22982814  0.58334860    -0.60790
O346        O  0.34082549  0.26699282  0.53289730    -0.51700
C347        C  0.36364425  0.14935862  0.51865957     0.70320
O348        O  0.34523749  0.14753711  0.55351901    -0.46560
C349        C  0.26111445  0.20860896  0.47724994     0.75020
O350        O  0.27606880  0.17217887  0.59204408    -0.58420
O351        O  0.27790610  0.23997651  0.49141842    -0.48510
O352        O  0.27343085  0.23615132  0.59062900    -0.54850
C353        C  0.36456401  0.26330360  0.56413589     0.85200
O354        O  0.35638805  0.18072942  0.49698992    -0.56750
O355        O  0.26982817  0.17652112  0.49683982    -0.60040
In356      In  0.18319061  0.20675972  0.37503001     1.36870
C357        C  0.23466330  0.20399155  0.64423483     0.77650
O358        O  0.13844602  0.23214594  0.66227332    -0.60790
O359        O  0.15091048  0.26572858  0.38455230    -0.51700
C360        C  0.13136459  0.14994704  0.39903714     0.70320
O361        O  0.15136630  0.14747428  0.36526390    -0.46560
C362        C  0.23384064  0.20874996  0.44064349     0.75020
O363        O  0.21746573  0.17269754  0.65830296    -0.58420
O364        O  0.21882225  0.24047925  0.42487646    -0.48510
O365        O  0.22611840  0.23605904  0.33001081    -0.54850
C366        C  0.13202242  0.26385891  0.34972785     0.85200
O367        O  0.13695457  0.18218858  0.41937883    -0.56750
O368        O  0.22350161  0.17656902  0.42254275    -0.60040
In369      In  0.74777335  0.14111690  0.62438288     1.36870
C370        C  0.74570378  0.19224528  0.55896934     0.77650
O371        O  0.71772614  0.18036198  0.67213605    -0.60790
O372        O  0.78137972  0.17709244  0.34076199    -0.51700
C373        C  0.68945450  0.09062284  0.64674145     0.70320
O374        O  0.68572405  0.11588841  0.61682170    -0.46560
C375        C  0.80506879  0.09022767  0.60171414     0.75020
O376        O  0.71467938  0.17410622  0.57172704    -0.58420
O377        O  0.80843363  0.11271096  0.63366023    -0.48510
O378        O  0.77731706  0.18419327  0.57938957    -0.54850
C379        C  0.74985739  0.19176562  0.35624747     0.85200
O380        O  0.72380348  0.09016075  0.33094497    -0.56750
O381        O  0.77171370  0.09232382  0.58242431    -0.60040
In382      In  0.74807011  0.27050532  0.45679986     1.36870
C383        C  0.74992516  0.21976776  0.39179219     0.77650
O384        O  0.77791397  0.23252269  0.50675290    -0.60790
O385        O  0.71421540  0.23394323  0.50594376    -0.51700
C386        C  0.80629499  0.32118295  0.47935045     0.70320
O387        O  0.81184775  0.29219458  0.45432656    -0.46560
C388        C  0.69042631  0.32133543  0.43312695     0.75020
O389        O  0.78065187  0.23904283  0.40374971    -0.58420
O390        O  0.68880654  0.30077419  0.46695905    -0.48510
O391        O  0.71866878  0.22660538  0.41270815    -0.54850
C392        C  0.74574400  0.22025520  0.52304839     0.85200
O393        O  0.77044179  0.32550666  0.49149236    -0.56750
O394        O  0.72243867  0.31687974  0.41223458    -0.60040
In395      In  0.68341441  0.70602723  0.53906879     1.36870
C396        C  0.73394989  0.70378698  0.47405737     0.77650
O397        O  0.63450168  0.73029090  0.49722354    -0.60790
O398        O  0.65404895  0.76636761  0.54875436    -0.51700
C399        C  0.63284681  0.64907528  0.56530980     0.70320
O400        O  0.64724486  0.64919247  0.52836229    -0.46560
C401        C  0.73486299  0.70861088  0.60368511     0.75020
O402        O  0.71868830  0.67209870  0.48955875    -0.58420
O403        O  0.71742010  0.73987842  0.58976589    -0.48510
O404        O  0.72376248  0.73595208  0.49198676    -0.54850
C405        C  0.63133903  0.76327743  0.51666654     0.85200
O406        O  0.64321394  0.67876650  0.58771236    -0.56750
O407        O  0.72683907  0.67662372  0.58391522    -0.60040
In408      In  0.81215058  0.70710781  0.37306923     1.36870
C409        C  0.76131861  0.70403651  0.43793347     0.77650
O410        O  0.86048673  0.73202109  0.41503049    -0.60790
O411        O  0.84106912  0.76781415  0.36272460    -0.51700
C412        C  0.86409820  0.65060308  0.35031996     0.70320
O413        O  0.84511349  0.64876091  0.38482799    -0.46560
C414        C  0.76194000  0.70876544  0.64040779     0.75020
O415        O  0.77668500  0.67260776  0.42265386    -0.58420
O416        O  0.77665330  0.74055756  0.65596768    -0.48510
O417        O  0.77149336  0.73639663  0.41983415    -0.54850
C418        C  0.86360284  0.76500217  0.39499771     0.85200
O419        O  0.85743902  0.68208937  0.66193959    -0.56750
O420        O  0.77229308  0.67661097  0.65893379    -0.60040
In421      In  0.99626503  0.95703064  0.50074570     1.36870
C422        C  0.93516221  0.99619671  0.53561482     0.77650
O423        O  0.02856111  0.01587661  0.50625818    -0.60790
O424        O  0.02409235  0.98901636  0.44526405    -0.51700
C425        C  0.05876455  0.92092174  0.53778329     0.70320
O426        O  0.02826811  0.93198085  0.55839965    -0.46560
C427        C  0.95884715  0.89585735  0.46245236     0.75020
O428        O  0.95643754  0.97139655  0.55643999    -0.58420
O429        O  0.96735468  0.92823801  0.44313630    -0.48510
O430        O  0.94483751  0.00034806  0.49735606    -0.54850
C431        C  0.03657721  0.01841302  0.46723996     0.85200
O432        O  0.05735691  0.92909004  0.49871936    -0.56750
O433        O  0.96960606  0.89516926  0.50071072    -0.60040
In434      In  0.99644324  0.45731891  0.58240971     1.36870
C435        C  0.05960418  0.49482486  0.54871959     0.77650
O436        O  0.96372154  0.51576018  0.57804171    -0.60790
O437        O  0.97055460  0.48934655  0.63904202    -0.51700
C438        C  0.93556282  0.41739599  0.54707406     0.70320
O439        O  0.95593801  0.44314615  0.52668449    -0.46560
C440        C  0.03675917  0.39631900  0.61698320     0.75020
O441        O  0.03338604  0.47718285  0.52617784    -0.58420
O442        O  0.02158201  0.42411776  0.63906302    -0.48510
O443        O  0.05328529  0.49278295  0.58800746    -0.54850
C444        C  0.95720943  0.51856648  0.61714760     0.85200
O445        O  0.94599777  0.41261168  0.58522281    -0.56750
O446        O  0.03113822  0.40014082  0.57752258    -0.60040
In447      In  0.49751736  0.95756396  0.41624411     1.36870
C448        C  0.53620231  0.89608192  0.45186874     0.77650
O449        O  0.43939478  0.92427066  0.42195137    -0.60790
O450        O  0.46386509  0.93140450  0.36041643    -0.51700
C451        C  0.46011866  0.01969051  0.45182833     0.70320
O452        O  0.47284552  0.98995363  0.47334454    -0.46560
C453        C  0.55868325  0.99447628  0.37828174     0.75020
O454        O  0.52671002  0.92725674  0.47250117    -0.58420
O455        O  0.52546719  0.98824749  0.35969359    -0.48510
O456        O  0.52559858  0.89667162  0.41335712    -0.54850
C457        C  0.43574323  0.91724535  0.38290177     0.85200
O458        O  0.46730955  0.01751720  0.41281635    -0.56750
O459        O  0.56068225  0.98123133  0.41574569    -0.60040
In460      In  0.49702852  0.45667201  0.66656300     1.36870
C461        C  0.46019606  0.39508522  0.62900879     0.77650
O462        O  0.55865929  0.43010072  0.66335986    -0.60790
O463        O  0.52717037  0.42531169  0.38830156    -0.51700
C464        C  0.53570119  0.51878895  0.63192281     0.70320
O465        O  0.52015847  0.49105831  0.60979222    -0.46560
C466        C  0.43586157  0.49406552  0.37030971     0.75020
O467        O  0.46885003  0.42729559  0.60933190    -0.58420
O468        O  0.46722858  0.48390257  0.39052977    -0.48510
O469        O  0.47109932  0.39441764  0.33401339    -0.54850
C470        C  0.55884927  0.41764099  0.36790093     0.85200
O471        O  0.53059914  0.51475710  0.33795541    -0.56750
O472        O  0.43599687  0.48456856  0.66508570    -0.60040
C473        C  0.90401681  0.61910584  0.62646836    -0.21240
C474        C  0.89058426  0.61797730  0.66852194    -0.09280
C475        C  0.90084199  0.58463141  0.36102555     0.29580
C476        C  0.92327458  0.55266462  0.34448205    -0.21240
C477        C  0.93550065  0.55328797  0.63528080    -0.09290
C478        C  0.92606132  0.58716836  0.60987604     0.29590
F479        F  0.93772562  0.58944575  0.56877174    -0.19810
H480        H  0.89658927  0.64439381  0.60588838     0.17950
H481        H  0.93038505  0.52705543  0.36472496     0.17960
F482        F  0.88888082  0.58262759  0.40202719    -0.19800
C483        C  0.91497567  0.79171149  0.44530764    -0.21240
C484        C  0.89053087  0.79789392  0.40936924    -0.09280
C485        C  0.89069670  0.83607667  0.38931072     0.29580
C486        C  0.91413327  0.86758527  0.40581310    -0.21240
C487        C  0.93732524  0.86166537  0.44270948    -0.09290
C488        C  0.93807053  0.82317551  0.46192838     0.29590
F489        F  0.96090082  0.81590458  0.49703246    -0.19810
H490        H  0.91563906  0.76260108  0.46120796     0.17950
H491        H  0.91307571  0.89699135  0.39055606     0.17960
F492        F  0.86731303  0.84343915  0.35465483    -0.19800
C493        C  0.58386152  0.59241623  0.55424443    -0.21240
C494        C  0.60695181  0.61639952  0.58183806    -0.09280
C495        C  0.60589113  0.60836359  0.62562177     0.29580
C496        C  0.58219163  0.57694380  0.64139664    -0.21240
C497        C  0.55911937  0.55278325  0.61398526    -0.09290
C498        C  0.55987655  0.56094305  0.57013607     0.29590
F499        F  0.53733772  0.53881393  0.54270240    -0.19810
H500        H  0.58420501  0.59821715  0.52043399     0.17950
H501        H  0.58250305  0.57108047  0.34187354     0.17960
F502        F  0.62894114  0.62988620  0.65316198    -0.19800
C503        C  0.55933106  0.82479053  0.44877012    -0.21240
C504        C  0.55840113  0.86160481  0.47057047    -0.09280
C505        C  0.57993254  0.86518332  0.50893293     0.29580
C506        C  0.60280723  0.83270697  0.52438027    -0.21240
C507        C  0.60441390  0.79614857  0.50202408    -0.09290
C508        C  0.58188306  0.79230313  0.46429649     0.29590
F509        F  0.58227627  0.75752421  0.44173044    -0.19810
H510        H  0.54281509  0.82121128  0.41929849     0.17950
H511        H  0.61995074  0.83648044  0.55342143     0.17960
F512        F  0.58017277  0.90043185  0.53068506    -0.19800
C513        C  0.58697163  0.36864030  0.42066806    -0.21240
C514        C  0.59310882  0.39507887  0.38634754    -0.09280
C515        C  0.63181363  0.39839819  0.36880239     0.29580
C516        C  0.66347358  0.37492803  0.38479128    -0.21240
C517        C  0.65718839  0.34774353  0.41847873    -0.09290
C518        C  0.61858424  0.34494331  0.43650790     0.29590
F519        F  0.61090859  0.31827329  0.46833874    -0.19810
H520        H  0.55732539  0.36539046  0.43443416     0.17950
H521        H  0.69292778  0.37779663  0.37050840     0.17960
F522        F  0.63915716  0.42447117  0.33633851    -0.19800
C523        C  0.83720153  0.38871928  0.49378163    -0.21240
C524        C  0.83963558  0.34637969  0.49503271    -0.09280
C525        C  0.87383846  0.32782277  0.51284914     0.29580
C526        C  0.90487243  0.35133483  0.52984026    -0.21240
C527        C  0.90286475  0.39359819  0.52797995    -0.09290
C528        C  0.86904678  0.41231677  0.50947383     0.29590
F529        F  0.86625956  0.45322382  0.50800036    -0.19810
H530        H  0.81084862  0.40339412  0.48035766     0.17950
H531        H  0.93068364  0.33655086  0.54430797     0.17960
F532        F  0.87647303  0.28692337  0.51527706    -0.19800
C533        C  0.58411152  0.05147803  0.33431705    -0.21240
C534        C  0.59214398  0.01680523  0.35866959    -0.09280
C535        C  0.63228979  0.00557231  0.36667334     0.29580
C536        C  0.66391079  0.02927202  0.35113790    -0.21240
C537        C  0.65594741  0.06453075  0.32754074    -0.09290
C538        C  0.61567513  0.07545216  0.31917633     0.29590
F539        F  0.60672661  0.11033442  0.63160962    -0.19810
H540        H  0.55330767  0.06093018  0.32852170     0.17950
H541        H  0.69466870  0.02021263  0.35782203     0.17960
F542        F  0.64088022  0.97154431  0.38924064    -0.19800
C543        C  0.83993667  0.02394989  0.59390903    -0.21240
C544        C  0.83856339  0.06573970  0.58630910    -0.09280
C545        C  0.86919511  0.08440195  0.56284166     0.29580
C546        C  0.90050511  0.06136395  0.54642010    -0.21240
C547        C  0.90226513  0.01963459  0.55421485    -0.09290
C548        C  0.87197365  0.00096292  0.57836554     0.29590
F549        F  0.87258528  0.96045745  0.58543282    -0.19810
H550        H  0.81627704  0.00925443  0.61180316     0.17950
H551        H  0.92365054  0.07615383  0.52784203     0.17960
F552        F  0.86838634  0.12484145  0.55525204    -0.19800
C553        C  0.08949795  0.11946175  0.45606660    -0.21240
C554        C  0.10481904  0.11727292  0.41478120    -0.09280
C555        C  0.09620087  0.08292079  0.39023207     0.29580
C556        C  0.07335507  0.05117187  0.40719807    -0.21240
C557        C  0.05905195  0.05292534  0.44894793    -0.09290
C558        C  0.06701061  0.08766206  0.47312853     0.29590
F559        F  0.05330636  0.09096891  0.51338642    -0.19810
H560        H  0.09566725  0.14553060  0.47565574     0.17950
H561        H  0.06749184  0.02485450  0.38788818     0.17960
F562        F  0.11012828  0.07972899  0.35006126    -0.19800
C563        C  0.06902540  0.32906106  0.60922361    -0.21240
C564        C  0.05943873  0.36186748  0.63523551    -0.09280
C565        C  0.07248308  0.36144224  0.34445123     0.29580
C566        C  0.09555496  0.32915489  0.36009912    -0.21240
C567        C  0.10559200  0.29662675  0.66713864    -0.09290
C568        C  0.09166075  0.29669822  0.62489986     0.29590
F569        F  0.10076752  0.26607917  0.59822689    -0.19810
H570        H  0.05920922  0.32852636  0.57642449     0.17950
H571        H  0.10591689  0.32980595  0.39270652     0.17960
F572        F  0.06388889  0.39257329  0.37064624    -0.19800
C573        C  0.42436998  0.05228834  0.51228355    -0.21240
C574        C  0.43774527  0.05393510  0.47015451    -0.09280
C575        C  0.42803644  0.08795597  0.44507191     0.29580
C576        C  0.40486995  0.11912574  0.46162997    -0.21240
C577        C  0.39053103  0.11708329  0.50332842    -0.09290
C578        C  0.40080563  0.08346570  0.52877899     0.29590
F579        F  0.38775290  0.08039970  0.56933789    -0.19810
H580        H  0.43141535  0.02643645  0.53220911     0.17950
H581        H  0.39742813  0.14460257  0.44131890     0.17960
F582        F  0.44044366  0.09105766  0.40426806    -0.19800
C583        C  0.44156341  0.32230770  0.62785715    -0.21240
C584        C  0.43835010  0.36095931  0.60956655    -0.09280
C585        C  0.41252418  0.36675665  0.57454573     0.29580
C586        C  0.38947621  0.33452780  0.55906311    -0.21240
C587        C  0.39187754  0.29605990  0.57812691    -0.09290
C588        C  0.41881345  0.29006625  0.61224680     0.29590
F589        F  0.42272347  0.25328459  0.63114586    -0.19810
H590        H  0.46146898  0.31711474  0.65469957     0.17950
H591        H  0.36886674  0.33998980  0.53288496     0.17960
F592        F  0.40797158  0.40391504  0.55665960    -0.19800
C593        C  0.34249903  0.85140151  0.37583346    -0.21240
C594        C  0.33687398  0.84817234  0.33186411    -0.09280
C595        C  0.36361100  0.86844740  0.63791708     0.29580
C596        C  0.39560242  0.89115984  0.65461797    -0.21240
C597        C  0.40147511  0.89392248  0.36534236    -0.09290
C598        C  0.37449376  0.87376413  0.39250514     0.29590
F599        F  0.37943310  0.87476169  0.43524164    -0.19810
H600        H  0.32257353  0.83573950  0.39749936     0.17950
H601        H  0.41583026  0.90653582  0.63306193     0.17960
F602        F  0.35866270  0.86666599  0.59523243    -0.19800
C603        C  0.08645816  0.87239650  0.59130940    -0.21240
C604        C  0.09291120  0.89892831  0.55713122    -0.09280
C605        C  0.13164093  0.90203462  0.53972780     0.29580
C606        C  0.16304460  0.87817511  0.55559159    -0.21240
C607        C  0.15639010  0.85045707  0.58875939    -0.09290
C608        C  0.11776117  0.84802393  0.60682399     0.29590
F609        F  0.10976735  0.82116956  0.63839056    -0.19810
H610        H  0.05671485  0.86932474  0.60488755     0.17950
H611        H  0.19248237  0.88083482  0.54123213     0.17960
F612        F  0.13914285  0.92809065  0.50728714    -0.19800
C613        C  0.15739716  0.55351745  0.54118077    -0.21240
C614        C  0.15896925  0.56284104  0.49776288    -0.09280
C615        C  0.12852764  0.54797210  0.47072701     0.29580
C616        C  0.09675893  0.52493744  0.48725238    -0.21240
C617        C  0.09458382  0.51676533  0.53094912    -0.09290
C618        C  0.12554203  0.53098152  0.55773975     0.29590
F619        F  0.12497443  0.52354651  0.60010496    -0.19810
H620        H  0.18041218  0.56459527  0.56269653     0.17950
H621        H  0.07339015  0.51423349  0.46596294     0.17960
F622        F  0.12927900  0.55581919  0.42845953    -0.19800
C623        C  0.36546327  0.51910953  0.36635140    -0.21240
C624        C  0.40171656  0.51588503  0.38928439    -0.09280
C625        C  0.40511246  0.53511733  0.42879193     0.29580
C626        C  0.37309462  0.55817117  0.44418060    -0.21240
C627        C  0.33717722  0.56216412  0.42063131    -0.09290
C628        C  0.33347249  0.54179862  0.38177258     0.29590
F629        F  0.29939432  0.54462526  0.35789615    -0.19810
H630        H  0.36198663  0.50444024  0.66930124     0.17950
H631        H  0.37671492  0.57354878  0.47414441     0.17960
F632        F  0.43974318  0.53291916  0.45181971    -0.19800
In633      In  0.24802612  0.64139267  0.79055804     1.36870
C634        C  0.24547832  0.69160638  0.72426196     0.77650
O635        O  0.21863751  0.68492216  0.83436475    -0.60790
O636        O  0.28165626  0.67608392  0.84132452    -0.51700
C637        C  0.19142688  0.58955780  0.81534913     0.70320
O638        O  0.19034612  0.60691804  0.77959220    -0.46560
C639        C  0.30477211  0.58924405  0.76856839     0.75020
O640        O  0.21396811  0.67750559  0.74084745    -0.58420
O641        O  0.30813090  0.61132205  0.80092405    -0.48510
O642        O  0.27778102  0.68045651  0.74175847    -0.54850
C643        C  0.25040396  0.69351075  0.85438001     0.85200
O644        O  0.22204325  0.59794334  0.83752351    -0.56750
O645        O  0.27187778  0.59314328  0.74873874    -0.60040
In646      In  0.24728468  0.77102224  0.95640555     1.36870
C647        C  0.24522484  0.71898640  0.68763050     0.77650
O648        O  0.21784262  0.73248646  0.90702370    -0.60790
O649        O  0.28158834  0.73505634  0.90758730    -0.51700
C650        C  0.18928163  0.82305109  0.93572129     0.70320
O651        O  0.18588405  0.79785749  0.96571611    -0.46560
C652        C  0.30407660  0.82220592  0.98219663     0.75020
O653        O  0.21407159  0.73695895  0.67440841    -0.58420
O654        O  0.30352008  0.80778525  0.94523696    -0.48510
O655        O  0.27678809  0.72683826  0.66727609    -0.54850
C656        C  0.25015734  0.72108548  0.89047544     0.85200
O657        O  0.22288138  0.82225124  0.91732471    -0.56750
O658        O  0.27486605  0.81146896  0.67166420    -0.60040
In659      In  0.31219484  0.20609363  0.87587330     1.36870
C660        C  0.26207804  0.20389310  0.94145991     0.77650
O661        O  0.36209034  0.22982814  0.91668193    -0.60790
O662        O  0.34082547  0.26699282  0.86623064    -0.51700
C663        C  0.36364425  0.14935862  0.85199289     0.70320
O664        O  0.34523748  0.14753711  0.88685233    -0.46560
C665        C  0.26111444  0.20860895  0.81058327     0.75020
O666        O  0.27606881  0.17217886  0.92537741    -0.58420
O667        O  0.27790610  0.23997650  0.82475174    -0.48510
O668        O  0.27343084  0.23615131  0.92396232    -0.54850
C669        C  0.36456400  0.26330360  0.89746922     0.85200
O670        O  0.35638805  0.18072942  0.83032324    -0.56750
O671        O  0.26982816  0.17652111  0.83017315    -0.60040
In672      In  0.18319060  0.20675972  0.70836334     1.36870
C673        C  0.23466331  0.20399154  0.97756816     0.77650
O674        O  0.13844602  0.23214592  0.99560667    -0.60790
O675        O  0.15091047  0.26572859  0.71788562    -0.51700
C676        C  0.13136457  0.14994705  0.73237047     0.70320
O677        O  0.15136629  0.14747428  0.69859723    -0.46560
C678        C  0.23384063  0.20874995  0.77397682     0.75020
O679        O  0.21746574  0.17269753  0.99163630    -0.58420
O680        O  0.21882224  0.24047925  0.75820979    -0.48510
O681        O  0.22611840  0.23605904  0.66334415    -0.54850
C682        C  0.13202243  0.26385892  0.68306117     0.85200
O683        O  0.13695454  0.18218859  0.75271215    -0.56750
O684        O  0.22350159  0.17656901  0.75587608    -0.60040
In685      In  0.74777335  0.14111689  0.95771620     1.36870
C686        C  0.74570378  0.19224527  0.89230266     0.77650
O687        O  0.71772614  0.18036202  0.00546934    -0.60790
O688        O  0.78137972  0.17709251  0.67409530    -0.51700
C689        C  0.68945451  0.09062285  0.98007481     0.70320
O690        O  0.68572406  0.11588839  0.95015503    -0.46560
C691        C  0.80506878  0.09022767  0.93504744     0.75020
O692        O  0.71467937  0.17410621  0.90506036    -0.58420
O693        O  0.80843368  0.11271105  0.96699346    -0.48510
O694        O  0.77731706  0.18419326  0.91272288    -0.54850
C695        C  0.74985738  0.19176564  0.68958082     0.85200
O696        O  0.72380347  0.09016072  0.66427826    -0.56750
O697        O  0.77171365  0.09232373  0.91575770    -0.60040
In698      In  0.74807009  0.27050534  0.79013321     1.36870
C699        C  0.74992515  0.21976779  0.72512553     0.77650
O700        O  0.77791396  0.23252271  0.84008623    -0.60790
O701        O  0.71421539  0.23394324  0.83927709    -0.51700
C702        C  0.80629498  0.32118297  0.81268380     0.70320
O703        O  0.81184773  0.29219462  0.78765989    -0.46560
C704        C  0.69042630  0.32133546  0.76646030     0.75020
O705        O  0.78065186  0.23904287  0.73708304    -0.58420
O706        O  0.68880653  0.30077422  0.80029240    -0.48510
O707        O  0.71866877  0.22660539  0.74604150    -0.54850
C708        C  0.74574399  0.22025520  0.85638172     0.85200
O709        O  0.77044178  0.32550666  0.82482573    -0.56750
O710        O  0.72243866  0.31687977  0.74556793    -0.60040
In711      In  0.68341441  0.70602723  0.87240213     1.36870
C712        C  0.73394989  0.70378697  0.80739071     0.77650
O713        O  0.63450168  0.73029089  0.83055688    -0.60790
O714        O  0.65404895  0.76636760  0.88208769    -0.51700
C715        C  0.63284681  0.64907527  0.89864314     0.70320
O716        O  0.64724486  0.64919246  0.86169563    -0.46560
C717        C  0.73486300  0.70861087  0.93701845     0.75020
O718        O  0.71868829  0.67209869  0.82289209    -0.58420
O719        O  0.71742010  0.73987841  0.92309923    -0.48510
O720        O  0.72376249  0.73595207  0.82532010    -0.54850
C721        C  0.63133903  0.76327743  0.84999988     0.85200
O722        O  0.64321394  0.67876650  0.92104570    -0.56750
O723        O  0.72683907  0.67662371  0.91724856    -0.60040
In724      In  0.81215059  0.70710781  0.70640258     1.36870
C725        C  0.76131861  0.70403651  0.77126682     0.77650
O726        O  0.86048674  0.73202108  0.74836383    -0.60790
O727        O  0.84106913  0.76781414  0.69605795    -0.51700
C728        C  0.86409819  0.65060307  0.68365329     0.70320
O729        O  0.84511349  0.64876090  0.71816133    -0.46560
C730        C  0.76194001  0.70876543  0.97374113     0.75020
O731        O  0.77668499  0.67260775  0.75598719    -0.58420
O732        O  0.77665331  0.74055755  0.98930101    -0.48510
O733        O  0.77149336  0.73639662  0.75316750    -0.54850
C734        C  0.86360285  0.76500216  0.72833106     0.85200
O735        O  0.85743904  0.68208935  0.99527291    -0.56750
O736        O  0.77229310  0.67661095  0.99226712    -0.60040
In737      In  0.99626504  0.95703063  0.83407903     1.36870
C738        C  0.93516220  0.99619669  0.86894814     0.77650
O739        O  0.02856109  0.01587662  0.83959151    -0.60790
O740        O  0.02409236  0.98901635  0.77859738    -0.51700
C741        C  0.05876455  0.92092175  0.87111664     0.70320
O742        O  0.02826811  0.93198085  0.89173299    -0.46560
C743        C  0.95884717  0.89585733  0.79578570     0.75020
O744        O  0.95643753  0.97139655  0.88977332    -0.58420
O745        O  0.96735470  0.92823799  0.77646963    -0.48510
O746        O  0.94483750  0.00034803  0.83068937    -0.54850
C747        C  0.03657721  0.01841302  0.80057329     0.85200
O748        O  0.05735693  0.92909005  0.83205271    -0.56750
O749        O  0.96960607  0.89516925  0.83404406    -0.60040
In750      In  0.99644325  0.45731889  0.91574305     1.36870
C751        C  0.05960420  0.49482484  0.88205293     0.77650
O752        O  0.96372156  0.51576016  0.91137505    -0.60790
O753        O  0.97055462  0.48934654  0.97237536    -0.51700
C754        C  0.93556283  0.41739598  0.88040741     0.70320
O755        O  0.95593802  0.44314614  0.86001783    -0.46560
C756        C  0.03675918  0.39631898  0.95031654     0.75020
O757        O  0.03338606  0.47718283  0.85951118    -0.58420
O758        O  0.02158203  0.42411775  0.97239636    -0.48510
O759        O  0.05328531  0.49278293  0.92134080    -0.54850
C760        C  0.95720945  0.51856647  0.95048094     0.85200
O761        O  0.94599778  0.41261167  0.91855615    -0.56750
O762        O  0.03113823  0.40014079  0.91085592    -0.60040
In763      In  0.49751736  0.95756395  0.74957744     1.36870
C764        C  0.53620232  0.89608192  0.78520207     0.77650
O765        O  0.43939478  0.92427066  0.75528470    -0.60790
O766        O  0.46386508  0.93140450  0.69374976    -0.51700
C767        C  0.46011866  0.01969051  0.78516166     0.70320
O768        O  0.47284552  0.98995362  0.80667786    -0.46560
C769        C  0.55868324  0.99447627  0.71161506     0.75020
O770        O  0.52671003  0.92725674  0.80583449    -0.58420
O771        O  0.52546718  0.98824748  0.69302691    -0.48510
O772        O  0.52559858  0.89667161  0.74669045    -0.54850
C773        C  0.43574322  0.91724535  0.71623510     0.85200
O774        O  0.46730956  0.01751720  0.74614967    -0.56750
O775        O  0.56068225  0.98123132  0.74907900    -0.60040
In776      In  0.49702851  0.45667200  0.99989635     1.36870
C777        C  0.46019604  0.39508521  0.96234214     0.77650
O778        O  0.55865927  0.43010070  0.99669319    -0.60790
O779        O  0.52717036  0.42531171  0.72163488    -0.51700
C780        C  0.53570118  0.51878895  0.96525616     0.70320
O781        O  0.52015847  0.49105830  0.94312557    -0.46560
C782        C  0.43586157  0.49406555  0.70364302     0.75020
O783        O  0.46885000  0.42729559  0.94266525    -0.58420
O784        O  0.46722857  0.48390259  0.72386308    -0.48510
O785        O  0.47109930  0.39441765  0.66734672    -0.54850
C786        C  0.55884926  0.41764100  0.70123426     0.85200
O787        O  0.53059914  0.51475710  0.67128873    -0.56750
O788        O  0.43599687  0.48456856  0.99841904    -0.60040
C789        C  0.90401682  0.61910583  0.95980168    -0.21240
C790        C  0.89058428  0.61797729  0.00185527    -0.09280
C791        C  0.90084199  0.58463140  0.69435888     0.29580
C792        C  0.92327458  0.55266461  0.67781538    -0.21240
C793        C  0.93550068  0.55328796  0.96861413    -0.09290
C794        C  0.92606133  0.58716834  0.94320937     0.29590
F795        F  0.93772562  0.58944572  0.90210506    -0.19810
H796        H  0.89658926  0.64439378  0.93922170     0.17950
H797        H  0.93038506  0.52705542  0.69805829     0.17960
F798        F  0.88888083  0.58262758  0.73536053    -0.19800
C799        C  0.91497569  0.79171147  0.77864098    -0.21240
C800        C  0.89053089  0.79789391  0.74270258    -0.09280
C801        C  0.89069672  0.83607665  0.72264406     0.29580
C802        C  0.91413330  0.86758525  0.73914644    -0.21240
C803        C  0.93732527  0.86166535  0.77604281    -0.09290
C804        C  0.93807055  0.82317550  0.79526172     0.29590
F805        F  0.96090085  0.81590456  0.83036580    -0.19810
H806        H  0.91563908  0.76260106  0.79454130     0.17950
H807        H  0.91307574  0.89699133  0.72388939     0.17960
F808        F  0.86731305  0.84343914  0.68798816    -0.19800
C809        C  0.58386153  0.59241620  0.88757778    -0.21240
C810        C  0.60695180  0.61639951  0.91517141    -0.09280
C811        C  0.60589110  0.60836360  0.95895512     0.29580
C812        C  0.58219160  0.57694381  0.97472999    -0.21240
C813        C  0.55911936  0.55278325  0.94731860    -0.09290
C814        C  0.55987656  0.56094302  0.90346942     0.29590
F815        F  0.53733776  0.53881390  0.87603573    -0.19810
H816        H  0.58420504  0.59821712  0.85376733     0.17950
H817        H  0.58250306  0.57108046  0.67520687     0.17960
F818        F  0.62894109  0.62988623  0.98649533    -0.19800
C819        C  0.55933104  0.82479051  0.78210347    -0.21240
C820        C  0.55840114  0.86160481  0.80390380    -0.09280
C821        C  0.57993258  0.86518333  0.84226624     0.29580
C822        C  0.60280726  0.83270698  0.85771359    -0.21240
C823        C  0.60441391  0.79614857  0.83535741    -0.09290
C824        C  0.58188304  0.79230312  0.79762984     0.29590
F825        F  0.58227622  0.75752418  0.77506382    -0.19810
H826        H  0.54281505  0.82121126  0.75263185     0.17950
H827        H  0.61995079  0.83648046  0.88675473     0.17960
F828        F  0.58017283  0.90043187  0.86401835    -0.19800
C829        C  0.58697162  0.36864034  0.75400141    -0.21240
C830        C  0.59310880  0.39507889  0.71968088    -0.09280
C831        C  0.63181361  0.39839819  0.70213571     0.29580
C832        C  0.66347357  0.37492804  0.71812462    -0.21240
C833        C  0.65718837  0.34774356  0.75181208    -0.09290
C834        C  0.61858424  0.34494335  0.76984126     0.29590
F835        F  0.61090859  0.31827335  0.80167212    -0.19810
H836        H  0.55732539  0.36539051  0.76776753     0.17950
H837        H  0.69292776  0.37779663  0.70384172     0.17960
F838        F  0.63915714  0.42447115  0.66967181    -0.19800
C839        C  0.83720154  0.38871929  0.82711497    -0.21240
C840        C  0.83963556  0.34637970  0.82836606    -0.09280
C841        C  0.87383844  0.32782277  0.84618252     0.29580
C842        C  0.90487241  0.35133483  0.86317364    -0.21240
C843        C  0.90286475  0.39359819  0.86131330    -0.09290
C844        C  0.86904679  0.41231677  0.84280716     0.29590
F845        F  0.86625959  0.45322382  0.84133367    -0.19810
H846        H  0.81084864  0.40339413  0.81369098     0.17950
H847        H  0.93068361  0.33655086  0.87764137     0.17960
F848        F  0.87647299  0.28692338  0.84861046    -0.19800
C849        C  0.58411150  0.05147806  0.66765042    -0.21240
C850        C  0.59214396  0.01680523  0.69200290    -0.09280
C851        C  0.63228978  0.00557227  0.70000660     0.29580
C852        C  0.66391077  0.02927199  0.68447116    -0.21240
C853        C  0.65594739  0.06453075  0.66087406    -0.09290
C854        C  0.61567511  0.07545220  0.65250971     0.29590
F855        F  0.60672662  0.11033439  0.96494293    -0.19810
H856        H  0.55330765  0.06093023  0.66185512     0.17950
H857        H  0.69466869  0.02021257  0.69115525     0.17960
F858        F  0.64088020  0.97154424  0.72257384    -0.19800
C859        C  0.83993661  0.02394987  0.92724226    -0.21240
C860        C  0.83856338  0.06573969  0.91964239    -0.09280
C861        C  0.86919513  0.08440195  0.89617502     0.29580
C862        C  0.90050514  0.06136394  0.87975346    -0.21240
C863        C  0.90226512  0.01963458  0.88754815    -0.09290
C864        C  0.87197359  0.00096289  0.91169878     0.29590
F865        F  0.87258519  0.96045742  0.91876601    -0.19810
H866        H  0.81627695  0.00925440  0.94513634     0.17950
H867        H  0.92365060  0.07615383  0.86117544     0.17960
F868        F  0.86838640  0.12484146  0.88858545    -0.19800
C869        C  0.08949791  0.11946177  0.78939991    -0.21240
C870        C  0.10481902  0.11727293  0.74811453    -0.09280
C871        C  0.09620087  0.08292079  0.72356540     0.29580
C872        C  0.07335507  0.05117187  0.74053140    -0.21240
C873        C  0.05905193  0.05292535  0.78228126    -0.09290
C874        C  0.06701057  0.08766207  0.80646185     0.29590
F875        F  0.05330631  0.09096894  0.84671973    -0.19810
H876        H  0.09566720  0.14553062  0.80898905     0.17950
H877        H  0.06749185  0.02485450  0.72122152     0.17960
F878        F  0.11012829  0.07972899  0.68339459    -0.19800
C879        C  0.06902537  0.32906102  0.94255696    -0.21240
C880        C  0.05943873  0.36186745  0.96856886    -0.09280
C881        C  0.07248309  0.36144225  0.67778454     0.29580
C882        C  0.09555495  0.32915490  0.69343243    -0.21240
C883        C  0.10559200  0.29662672  0.00047198    -0.09290
C884        C  0.09166072  0.29669818  0.95823321     0.29590
F885        F  0.10076747  0.26607911  0.93156026    -0.19810
H886        H  0.05920917  0.32852631  0.90975786     0.17950
H887        H  0.10591687  0.32980594  0.72603984     0.17960
F888        F  0.06388887  0.39257329  0.70397956    -0.19800
C889        C  0.42436997  0.05228833  0.84561688    -0.21240
C890        C  0.43774527  0.05393510  0.80348784    -0.09280
C891        C  0.42803645  0.08795596  0.77840524     0.29580
C892        C  0.40486995  0.11912574  0.79496329    -0.21240
C893        C  0.39053103  0.11708329  0.83666174    -0.09290
C894        C  0.40080562  0.08346570  0.86211231     0.29590
F895        F  0.38775290  0.08039970  0.90267121    -0.19810
H896        H  0.43141534  0.02643644  0.86554244     0.17950
H897        H  0.39742814  0.14460257  0.77465222     0.17960
F898        F  0.44044367  0.09105766  0.73760139    -0.19800
C899        C  0.44156341  0.32230769  0.96119048    -0.21240
C900        C  0.43835008  0.36095931  0.94289990    -0.09280
C901        C  0.41252413  0.36675666  0.90787910     0.29580
C902        C  0.38947617  0.33452782  0.89239648    -0.21240
C903        C  0.39187752  0.29605990  0.91146025    -0.09290
C904        C  0.41881344  0.29006624  0.94558012     0.29590
F905        F  0.42272350  0.25328458  0.96447916    -0.19810
H906        H  0.46146899  0.31711473  0.98803288     0.17950
H907        H  0.36886668  0.33998981  0.86621835     0.17960
F908        F  0.40797151  0.40391506  0.88999300    -0.19800
C909        C  0.34249902  0.85140151  0.70916679    -0.21240
C910        C  0.33687396  0.84817235  0.66519744    -0.09280
C911        C  0.36361101  0.86844738  0.97125042     0.29580
C912        C  0.39560243  0.89115982  0.98795132    -0.21240
C913        C  0.40147510  0.89392248  0.69867569    -0.09290
C914        C  0.37449376  0.87376412  0.72583847     0.29590
F915        F  0.37943310  0.87476167  0.76857497    -0.19810
H916        H  0.32257353  0.83573949  0.73083269     0.17950
H917        H  0.41583028  0.90653580  0.96639528     0.17960
F918        F  0.35866272  0.86666596  0.92856578    -0.19800
C919        C  0.08645816  0.87239650  0.92464275    -0.21240
C920        C  0.09291121  0.89892833  0.89046458    -0.09280
C921        C  0.13164094  0.90203464  0.87306117     0.29580
C922        C  0.16304461  0.87817513  0.88892496    -0.21240
C923        C  0.15639010  0.85045708  0.92209276    -0.09290
C924        C  0.11776117  0.84802394  0.94015735     0.29590
F925        F  0.10976735  0.82116955  0.97172390    -0.19810
H926        H  0.05671485  0.86932474  0.93822090     0.17950
H927        H  0.19248238  0.88083485  0.87456552     0.17960
F928        F  0.13914287  0.92809069  0.84062052    -0.19800
C929        C  0.15739717  0.55351745  0.87451411    -0.21240
C930        C  0.15896926  0.56284104  0.83109621    -0.09280
C931        C  0.12852766  0.54797209  0.80406034     0.29580
C932        C  0.09675895  0.52493742  0.82058572    -0.21240
C933        C  0.09458384  0.51676531  0.86428246    -0.09290
C934        C  0.12554205  0.53098151  0.89107308     0.29590
F935        F  0.12497445  0.52354650  0.93343830    -0.19810
H936        H  0.18041219  0.56459527  0.89602986     0.17950
H937        H  0.07339017  0.51423347  0.79929627     0.17960
F938        F  0.12927901  0.55581918  0.76179287    -0.19800
C939        C  0.36546326  0.51910957  0.69968470    -0.21240
C940        C  0.40171656  0.51588507  0.72261769    -0.09280
C941        C  0.40511246  0.53511737  0.76212524     0.29580
C942        C  0.37309462  0.55817121  0.77751390    -0.21240
C943        C  0.33717722  0.56216415  0.75396462    -0.09290
C944        C  0.33347249  0.54179866  0.71510589     0.29590
F945        F  0.29939432  0.54462530  0.69122946    -0.19810
H946        H  0.36198662  0.50444023  0.00263459     0.17950
H947        H  0.37671493  0.57354882  0.80747771     0.17960
F948        F  0.43974319  0.53291920  0.78515301    -0.19800
loop_ 
_geom_bond_atom_site_label_1 
_geom_bond_atom_site_label_2 
_geom_bond_distance 
_geom_bond_site_symmetry_2 
_ccdc_geom_bond_type 
In1           O3   2.234       .  S
In1           O4   2.263       .  S
In1          O12   2.234       .  S
In1           O6   2.253       .  S
In1           O8   2.263       .  S
In1           O9   2.252       .  S
In1          O10   2.237       .  S
In1          O13   2.229       .  S
C2            O8   1.260       .  A
C2           O10   1.257       .  A
C2           C15   1.463       .  S
O3           C11   1.258       .  A
O4           C11   1.261       .  A
C5           O12   1.261       .  A
C5            O6   1.263       .  A
C5          C298   1.479       .  S
C7            O9   1.264       .  A
C7           O13   1.261       .  A
C7          C311   1.480       .  S
C11          C24   1.464       .  S
In14         O16   2.238       .  S
In14         O17   2.268       .  S
In14         O25   2.239       .  S
In14         O19   2.247       .  S
In14         O22   2.255       .  S
In14        O337   2.259       .  S
In14        O339   2.236       .  S
In14        O342   2.232       .  S
C15          O21   1.261       .  A
C15          O23   1.259       .  A
O16          C24   1.257       .  A
O17          C24   1.260       .  A
C18          O25   1.262       .  A
C18          O19   1.262       .  A
C18         C291   1.480       .  S
C20          O22   1.263       .  A
C20         O342   1.261       .  A
C20         C594   1.477       .  S
O21        In646   2.259   1_554  S
O23        In646   2.236   1_554  S
O26        In646   2.232   1_554  S
O26         C652   1.261   1_554  A
In27         O29   2.235       .  S
In27         O30   2.246       .  S
In27         O38   2.231       .  S
In27         O32   2.252       .  S
In27         O34   2.266       .  S
In27         O35   2.260       .  S
In27         O36   2.237       .  S
In27         O39   2.236       .  S
C28          O34   1.260       .  A
C28          O36   1.257       .  A
C28          C41   1.463       .  S
O29          C37   1.262       .  A
O30          C37   1.263       .  A
C31          O38   1.262       .  A
C31          O32   1.263       .  A
C31         C261   1.480       .  S
C33          O35   1.260       .  A
C33          O39   1.258       .  A
C33          C46   1.462       .  S
C37         C271   1.479       .  S
In40         O43   2.251       .  S
In40         O51   2.233       .  S
In40         O45   2.248       .  S
In40         O48   2.260       .  S
In40         O49   2.235   1_554  S
In40         O52   2.234       .  S
In40        O674   2.232   1_554  S
In40        O679   2.262   1_554  S
C41          O47   1.261       .  A
C41         O365   1.258       .  A
O42        In356   2.232       .  S
O42         C366   1.261       .  A
O43          C50   1.263       .  A
C44          O51   1.261       .  A
C44          O45   1.263       .  A
C44         C238   1.479       .  S
C46          O48   1.261       .  A
C46          O52   1.258       .  A
O47        In356   2.262       .  S
O49         C673   1.258       .  A
C50         O674   1.261   1_554  A
C50         C883   1.479       .  S
In53         O55   2.238       .  S
In53         O58   2.233       .  S
In53         O60   2.261       .  S
In53         O61   2.241       .  S
In53         O62   2.235       .  S
In53         O65   2.245       .  S
In53        O372   2.262       .  S
In53        O380   2.245       .  S
C54          O60   1.258       .  A
C54          O62   1.256       .  A
C54          C76   1.459       .  S
O55         C379   1.255       .  A
O56        In685   2.262   1_554  S
O56          C63   1.258       .  A
C57          O58   1.262       .  A
C57         O380   1.264       .  A
C57         C537   1.476       .  S
C59          O61   1.261       .  A
C59          O65   1.261       .  A
C59         C228   1.465       .  S
C63         O687   1.255       .  A
C63          C67   1.460       .  S
O64        In685   2.245       .  S
O64         C689   1.264       .  A
In66         O68   2.236       .  S
In66         O69   2.264       .  S
In66         O77   2.252       .  S
In66         O71   2.236       .  S
In66         O73   2.261       .  S
In66         O74   2.236       .  S
In66         O75   2.236       .  S
In66         O78   2.239       .  S
C67          O73   1.259       .  A
C67          O75   1.256       .  A
O68          C76   1.254       .  A
O69          C76   1.258       .  A
C70          O77   1.262       .  A
C70          O71   1.261       .  A
C70         C208   1.469       .  S
C72          O74   1.263       .  A
C72          O78   1.264       .  A
C72         C201   1.478       .  S
In79         O81   2.232       .  S
In79         O82   2.248       .  S
In79         O90   2.226       .  S
In79         O84   2.255       .  S
In79         O86   2.265       .  S
In79         O87   2.254       .  S
In79         O88   2.233       .  S
In79         O91   2.232       .  S
C80          O86   1.261       .  A
C80          O88   1.257       .  A
C80          C93   1.463       .  S
O81          C89   1.261       .  A
O82          C89   1.262       .  A
C83          O90   1.260       .  A
C83          O84   1.263       .  A
C83         C178   1.475       .  S
C85          O87   1.261       .  A
C85          O91   1.259       .  A
C85          C98   1.461       .  S
C89         C191   1.479       .  S
In92         O94   2.233       .  S
In92         O95   2.247       .  S
In92         O97   2.248       .  S
In92         O99   2.266       .  S
In92        O101   2.235       .  S
In92        O735   2.229   1_554  S
In92        O732   2.258   1_554  S
In92        O736   2.236   1_554  S
C93          O99   1.260       .  A
C93         O101   1.257       .  A
O94         C102   1.262       .  A
O95         C102   1.262       .  A
C96          O97   1.263       .  A
C96         O735   1.262   1_554  A
C96         C790   1.478       .  S
C98         O100   1.260       .  A
C98         O104   1.258       .  A
O100       In408   2.258       .  S
C102        C168   1.478       .  S
O103       In408   2.229       .  S
O103        C412   1.262       .  A
O104       In408   2.236       .  S
In105       O107   2.228   1_665  S
In105       O108   2.243   1_655  S
In105       O116   2.232   1_655  S
In105       O110   2.254   1_655  S
In105       O112   2.261       .  S
In105       O113   2.264       .  S
In105       O114   2.233   1_565  S
In105       O117   2.228       .  S
C106        O112   1.262       .  A
C106        O114   1.258   1_565  A
C106        C231   1.469   1_565  S
O107        C115   1.264       .  A
O108        C115   1.266   1_565  A
C109        O116   1.260       .  A
C109        O110   1.264       .  A
C109        C288   1.475       .  S
C111        O113   1.261       .  A
C111        O117   1.256       .  A
C111        C171   1.476       .  S
C115        C241   1.479       .  S
In118       O120   2.223       .  S
In118       O121   2.260       .  S
In118       O129   2.234       .  S
In118       O123   2.257       .  S
In118       O125   2.257   1_655  S
In118       O126   2.248   1_655  S
In118       O127   2.227   1_655  S
In118       O130   2.224   1_655  S
C119        O125   1.264       .  A
C119        O127   1.260       .  A
C119        C301   1.480       .  S
O120        C128   1.258       .  A
O121        C128   1.263       .  A
C122        O129   1.259       .  A
C122        O123   1.262       .  A
C122        C211   1.468       .  S
C124        O126   1.265       .  A
C124        O130   1.263       .  A
C124        C248   1.479       .  S
C128        C161   1.478       .  S
In131       O133   2.228       .  S
In131       O134   2.256       .  S
In131       O142   2.226   1_565  S
In131       O136   2.262       .  S
In131       O138   2.247       .  S
In131       O139   2.252       .  S
In131       O140   2.225       .  S
In131       O143   2.237       .  S
C132        O138   1.265       .  A
C132        O140   1.263       .  A
C132        C188   1.477       .  S
O133        C141   1.260       .  A
O134        C141   1.264       .  A
C135        O142   1.258       .  A
C135        O136   1.263   1_545  A
C135        C258   1.480       .  S
C137        O139   1.262       .  A
C137        O143   1.259       .  A
C137        C218   1.471   1_565  S
C141        C281   1.480       .  S
In144       O146   2.232       .  S
In144       O149   2.254       .  S
In144       O151   2.253       .  S
In144       O156   2.228       .  S
In144       O463   2.247       .  S
In144       O471   2.225       .  S
In144       O468   2.261       .  S
In144       O469   2.231       .  S
C145        O151   1.263       .  A
C145        O469   1.260       .  A
C145        C268   1.475       .  S
O146        C470   1.261       .  A
O147       In776   2.247   1_554  S
O147        C154   1.264       .  A
C148        O149   1.264       .  A
C148        O471   1.261       .  A
C148        C181   1.478       .  S
C150        O152   1.262       .  A
C150        O788   1.259   1_554  A
C150        C308   1.478       .  S
O152       In776   2.261   1_554  S
O153       In776   2.231   1_554  S
O153        C777   1.260   1_554  A
C154        O778   1.261   1_554  A
C154        C198   1.476       .  S
O155       In776   2.225   1_554  S
O155        C780   1.261   1_554  A
O156        C466   1.259       .  A
C157        C158   1.403       .  A
C157        C162   1.394       .  A
C157        H164   1.083       .  S
C158        C412   1.478       .  S
C158        C475   1.408       .  A
C159        C160   1.401       .  A
C159        C790   1.408       .  A
C159        F166   1.357       .  S
C160        C793   1.405   1_554  A
C160        H165   1.083       .  S
C161        C162   1.408       .  A
C161        C476   1.405       .  A
C162        F163   1.358       .  S
C167        C168   1.404       .  A
C167        C172   1.395       .  A
C167        H174   1.083       .  S
C168        C169   1.409       .  A
C169        C170   1.400       .  A
C169        F176   1.357       .  S
C170        C171   1.404       .  A
C170        H175   1.083       .  S
C171        C172   1.407       .  A
C172        F173   1.358       .  S
C177        C178   1.404       .  A
C177        C182   1.402       .  A
C177        H184   1.083       .  S
C178        C179   1.406       .  A
C179        C180   1.394       .  A
C179        F186   1.358       .  S
C180        C181   1.404       .  A
C180        H501   1.083       .  S
C181        C182   1.408       .  A
C182        F183   1.357       .  S
H185        C812   1.083   1_554  S
C187        C188   1.404       .  A
C187        C192   1.395       .  A
C187        H194   1.083       .  S
C188        C189   1.407       .  A
C189        C190   1.400       .  A
C189        F196   1.357       .  S
C190        C191   1.406       .  A
C190        H195   1.083       .  S
C191        C192   1.407       .  A
C192        F193   1.358       .  S
C197        C198   1.403       .  A
C197        C202   1.399       .  A
C197        H204   1.084       .  S
C198        C199   1.407       .  A
C199        C200   1.397       .  A
C199        F206   1.358       .  S
C200        C201   1.404       .  A
C200        H205   1.083       .  S
C201        C202   1.409       .  A
C202        F203   1.357       .  S
C207        C208   1.404       .  A
C207        C212   1.402       .  A
C207        H214   1.084       .  S
C208        C209   1.404       .  A
C209        C210   1.396       .  A
C209        F216   1.358       .  S
C210        C211   1.401       .  A
C210        H215   1.084       .  S
C211        C212   1.405       .  A
C212        F213   1.357       .  S
C217        C218   1.401       .  A
C217        C222   1.398   1_554  A
C217        H224   1.084   1_554  S
C218        C219   1.405       .  A
C219        C220   1.398       .  A
C219        F226   1.358   1_545  S
C220        C221   1.404   1_554  A
C220        H225   1.084       .  S
C221        C689   1.476       .  S
C221        C222   1.408       .  A
C222        F855   1.358       .  S
F223        C538   1.358       .  S
C227        C228   1.402       .  A
C227        C232   1.402       .  A
C227        H234   1.083       .  S
C228        C229   1.402       .  A
C229        C230   1.395       .  A
C229        F236   1.358       .  S
C230        C231   1.402       .  A
C230        H235   1.084       .  S
C231        C232   1.406       .  A
C232        F233   1.357   1_545  S
C237        C238   1.404       .  A
C237        C242   1.396       .  A
C237        H244   1.083       .  S
C238        C239   1.408       .  A
C239        C240   1.400       .  A
C239        F246   1.357       .  S
C240        C241   1.405       .  A
C240        H245   1.083       .  S
C241        C242   1.407       .  A
C242        F243   1.358       .  S
C247        C248   1.404       .  A
C247        C252   1.395       .  A
C247        H254   1.083       .  S
C248        C565   1.407       .  A
C249        C250   1.401       .  A
C249        C880   1.407   1_554  A
C249        F256   1.357       .  S
C250        C883   1.406       .  A
C250        H255   1.083       .  S
C251        C366   1.479       .  S
C251        C252   1.407       .  A
C251        C566   1.406       .  A
C252        F253   1.358       .  S
C257        C258   1.405       .  A
C257        C262   1.401       .  A
C257        H264   1.083       .  S
C258        C259   1.408       .  A
C259        C260   1.395       .  A
C259        F266   1.358       .  S
C260        C261   1.404       .  A
C260        H265   1.083       .  S
C261        C262   1.408       .  A
C262        F263   1.357       .  S
C267        C268   1.403       .  A
C267        C272   1.396       .  A
C267        H274   1.083       .  S
C268        C269   1.406       .  A
C269        C270   1.400       .  A
C269        F276   1.357       .  S
C270        C271   1.406       .  A
C270        H275   1.083       .  S
C271        C272   1.408       .  A
C272        F273   1.357       .  S
C277        C278   1.403   1_554  A
C277        C282   1.395       .  A
C277        H284   1.083       .  S
C278        C652   1.477       .  S
C278        C911   1.407       .  A
C279        C280   1.401       .  A
C279        C594   1.407       .  A
C279        F286   1.357       .  S
C280        C597   1.406       .  A
C280        H285   1.083       .  S
C281        C282   1.408       .  A
C281        C912   1.406   1_554  A
C282        F283   1.358       .  S
C287        C288   1.403       .  A
C287        C292   1.400       .  A
C287        H294   1.084       .  S
C288        C289   1.405       .  A
C289        C290   1.397       .  A
C289        F296   1.358       .  S
C290        C291   1.405       .  A
C290        H295   1.083       .  S
C291        C292   1.409       .  A
C292        F293   1.357       .  S
C297        C298   1.403       .  A
C297        C302   1.395       .  A
C297        H304   1.083       .  S
C298        C299   1.408       .  A
C299        C300   1.401       .  A
C299        F306   1.357       .  S
C300        C301   1.405       .  A
C300        H305   1.083       .  S
C301        C302   1.408       .  A
C302        F303   1.358       .  S
C307        C308   1.404       .  A
C307        C312   1.395       .  A
C307        H946   1.083       .  S
C308        C309   1.407       .  A
C309        C310   1.401       .  A
C309        F316   1.357       .  S
C310        C311   1.406       .  A
C310        H315   1.083       .  S
C311        C312   1.408       .  A
C312        F313   1.358       .  S
H314        C623   1.083       .  S
In317       O319   2.234       .  S
In317       O320   2.263       .  S
In317       O328   2.234       .  S
In317       O322   2.253       .  S
In317       O324   2.263       .  S
In317       O325   2.252       .  S
In317       O326   2.237       .  S
In317       O329   2.229       .  S
C318        O324   1.260       .  A
C318        O326   1.257       .  A
C318        C331   1.463       .  S
O319        C327   1.258       .  A
O320        C327   1.261       .  A
C321        O328   1.261       .  A
C321        O322   1.263       .  A
C321        C614   1.479       .  S
C323        O325   1.264       .  A
C323        O329   1.261       .  A
C323        C627   1.480       .  S
C327        C340   1.464       .  S
In330       O332   2.238       .  S
In330       O333   2.268       .  S
In330       O341   2.239       .  S
In330       O335   2.247       .  S
In330       O653   2.259       .  S
In330       O338   2.255       .  S
In330       O655   2.236       .  S
In330       O658   2.232       .  S
C331        O337   1.261       .  A
C331        O339   1.259       .  A
O332        C340   1.257       .  A
O333        C340   1.260       .  A
C334        O341   1.262       .  A
C334        O335   1.262       .  A
C334        C607   1.480       .  S
C336        O338   1.263       .  A
C336        O658   1.261       .  A
C336        C910   1.477       .  S
In343       O345   2.235       .  S
In343       O346   2.246       .  S
In343       O354   2.231       .  S
In343       O348   2.252       .  S
In343       O350   2.266       .  S
In343       O351   2.260       .  S
In343       O352   2.237       .  S
In343       O355   2.236       .  S
C344        O350   1.260       .  A
C344        O352   1.257       .  A
C344        C357   1.463       .  S
O345        C353   1.262       .  A
O346        C353   1.263       .  A
C347        O354   1.262       .  A
C347        O348   1.263       .  A
C347        C577   1.480       .  S
C349        O351   1.260       .  A
C349        O355   1.258       .  A
C349        C362   1.462       .  S
C353        C587   1.479       .  S
In356       O359   2.251       .  S
In356       O367   2.233       .  S
In356       O361   2.248       .  S
In356       O364   2.260       .  S
In356       O365   2.235       .  S
In356       O368   2.234       .  S
C357        O363   1.261       .  A
C357        O681   1.258       .  A
O358       In672   2.232       .  S
O358        C682   1.261       .  A
O359        C366   1.263       .  A
C360        O367   1.261       .  A
C360        O361   1.263       .  A
C360        C554   1.479       .  S
C362        O364   1.261       .  A
C362        O368   1.258       .  A
O363       In672   2.262       .  S
In369       O371   2.238       .  S
In369       O688   2.262       .  S
In369       O696   2.245       .  S
In369       O374   2.233       .  S
In369       O376   2.261       .  S
In369       O377   2.241       .  S
In369       O378   2.235       .  S
In369       O381   2.245       .  S
C370        O376   1.258       .  A
C370        O378   1.256       .  A
C370        C392   1.459       .  S
O371        C695   1.255       .  A
O372        C379   1.258       .  A
C373        O696   1.264       .  A
C373        O374   1.262       .  A
C373        C853   1.476       .  S
C375        O377   1.261       .  A
C375        O381   1.261       .  A
C375        C544   1.465       .  S
C379        C383   1.460       .  S
In382       O384   2.236       .  S
In382       O385   2.264       .  S
In382       O393   2.252       .  S
In382       O387   2.236       .  S
In382       O389   2.261       .  S
In382       O390   2.236       .  S
In382       O391   2.236       .  S
In382       O394   2.239       .  S
C383        O389   1.259       .  A
C383        O391   1.256       .  A
O384        C392   1.254       .  A
O385        C392   1.258       .  A
C386        O393   1.262       .  A
C386        O387   1.261       .  A
C386        C524   1.469       .  S
C388        O390   1.263       .  A
C388        O394   1.264       .  A
C388        C517   1.478       .  S
In395       O397   2.232       .  S
In395       O398   2.248       .  S
In395       O406   2.226       .  S
In395       O400   2.255       .  S
In395       O402   2.265       .  S
In395       O403   2.254       .  S
In395       O404   2.233       .  S
In395       O407   2.232       .  S
C396        O402   1.261       .  A
C396        O404   1.257       .  A
C396        C409   1.463       .  S
O397        C405   1.261       .  A
O398        C405   1.262       .  A
C399        O406   1.260       .  A
C399        O400   1.263       .  A
C399        C494   1.475       .  S
C401        O403   1.261       .  A
C401        O407   1.259       .  A
C401        C414   1.461       .  S
C405        C507   1.479       .  S
In408       O410   2.233       .  S
In408       O411   2.247       .  S
In408       O413   2.248       .  S
In408       O415   2.266       .  S
In408       O417   2.235       .  S
C409        O415   1.260       .  A
C409        O417   1.257       .  A
O410        C418   1.262       .  A
O411        C418   1.262       .  A
C412        O413   1.263       .  A
C414        O416   1.260       .  A
C414        O420   1.258       .  A
O416       In724   2.258       .  S
C418        C484   1.478       .  S
O419       In724   2.229       .  S
O419        C728   1.262       .  A
O420       In724   2.236       .  S
In421       O423   2.228   1_665  S
In421       O424   2.243   1_655  S
In421       O432   2.232   1_655  S
In421       O426   2.254   1_655  S
In421       O428   2.261       .  S
In421       O429   2.264       .  S
In421       O430   2.233   1_565  S
In421       O433   2.228       .  S
C422        O428   1.262       .  A
C422        O430   1.258   1_565  A
C422        C547   1.469   1_565  S
O423        C431   1.264       .  A
O424        C431   1.266   1_565  A
C425        O432   1.260       .  A
C425        O426   1.264       .  A
C425        C604   1.475       .  S
C427        O429   1.261       .  A
C427        O433   1.256       .  A
C427        C487   1.476       .  S
C431        C557   1.479       .  S
In434       O436   2.223       .  S
In434       O437   2.260       .  S
In434       O445   2.234       .  S
In434       O439   2.257       .  S
In434       O441   2.257   1_655  S
In434       O442   2.248   1_655  S
In434       O443   2.227   1_655  S
In434       O446   2.224   1_655  S
C435        O441   1.264       .  A
C435        O443   1.260       .  A
C435        C617   1.480       .  S
O436        C444   1.258       .  A
O437        C444   1.263       .  A
C438        O445   1.259       .  A
C438        O439   1.262       .  A
C438        C527   1.468       .  S
C440        O442   1.265       .  A
C440        O446   1.263       .  A
C440        C564   1.479       .  S
C444        C477   1.478       .  S
In447       O449   2.228       .  S
In447       O450   2.256       .  S
In447       O458   2.226   1_565  S
In447       O452   2.262       .  S
In447       O454   2.247       .  S
In447       O455   2.252       .  S
In447       O456   2.225       .  S
In447       O459   2.237       .  S
C448        O454   1.265       .  A
C448        O456   1.263       .  A
C448        C504   1.477       .  S
O449        C457   1.260       .  A
O450        C457   1.264       .  A
C451        O458   1.258       .  A
C451        O452   1.263   1_545  A
C451        C574   1.480       .  S
C453        O455   1.262       .  A
C453        O459   1.259       .  A
C453        C534   1.471   1_565  S
C457        C597   1.480       .  S
In460       O462   2.232       .  S
In460       O779   2.247       .  S
In460       O787   2.225       .  S
In460       O465   2.254       .  S
In460       O467   2.253       .  S
In460       O784   2.261       .  S
In460       O785   2.231       .  S
In460       O472   2.228       .  S
C461        O467   1.263       .  A
C461        O785   1.260       .  A
C461        C584   1.475       .  S
O462        C786   1.261       .  A
O463        C470   1.264       .  A
C464        O787   1.261       .  A
C464        O465   1.264       .  A
C464        C497   1.478       .  S
C466        O468   1.262       .  A
C466        C624   1.478       .  S
C470        C514   1.476       .  S
O472        C782   1.259       .  A
C473        C474   1.403       .  A
C473        C478   1.394       .  A
C473        H480   1.083       .  S
C474        C728   1.478       .  S
C474        C791   1.408       .  A
C475        C476   1.401       .  A
C475        F482   1.357       .  S
C476        H481   1.083       .  S
C477        C792   1.405       .  A
C477        C478   1.408       .  A
C478        F479   1.358       .  S
C483        C484   1.404       .  A
C483        C488   1.395       .  A
C483        H490   1.083       .  S
C484        C485   1.409       .  A
C485        C486   1.400       .  A
C485        F492   1.357       .  S
C486        C487   1.404       .  A
C486        H491   1.083       .  S
C487        C488   1.407       .  A
C488        F489   1.358       .  S
C493        C494   1.404       .  A
C493        C498   1.402       .  A
C493        H500   1.083       .  S
C494        C495   1.406       .  A
C495        C496   1.394       .  A
C495        F502   1.358       .  S
C496        C497   1.404       .  A
C496        H817   1.083       .  S
C497        C498   1.408       .  A
C498        F499   1.357       .  S
C503        C504   1.404       .  A
C503        C508   1.395       .  A
C503        H510   1.083       .  S
C504        C505   1.407       .  A
C505        C506   1.400       .  A
C505        F512   1.357       .  S
C506        C507   1.406       .  A
C506        H511   1.083       .  S
C507        C508   1.407       .  A
C508        F509   1.358       .  S
C513        C514   1.403       .  A
C513        C518   1.399       .  A
C513        H520   1.084       .  S
C514        C515   1.407       .  A
C515        C516   1.397       .  A
C515        F522   1.358       .  S
C516        C517   1.404       .  A
C516        H521   1.083       .  S
C517        C518   1.409       .  A
C518        F519   1.357       .  S
C523        C524   1.404       .  A
C523        C528   1.402       .  A
C523        H530   1.084       .  S
C524        C525   1.404       .  A
C525        C526   1.396       .  A
C525        F532   1.358       .  S
C526        C527   1.401       .  A
C526        H531   1.084       .  S
C527        C528   1.405       .  A
C528        F529   1.357       .  S
C533        C534   1.401       .  A
C533        C538   1.398       .  A
C533        H540   1.084       .  S
C534        C535   1.405       .  A
C535        C536   1.398       .  A
C535        F542   1.358   1_545  S
C536        C537   1.404       .  A
C536        H541   1.084       .  S
C537        C538   1.408       .  A
F539        C854   1.358       .  S
C543        C544   1.402       .  A
C543        C548   1.402       .  A
C543        H550   1.083       .  S
C544        C545   1.402       .  A
C545        C546   1.395       .  A
C545        F552   1.358       .  S
C546        C547   1.402       .  A
C546        H551   1.084       .  S
C547        C548   1.406       .  A
C548        F549   1.357   1_545  S
C553        C554   1.404       .  A
C553        C558   1.396       .  A
C553        H560   1.083       .  S
C554        C555   1.408       .  A
C555        C556   1.400       .  A
C555        F562   1.357       .  S
C556        C557   1.405       .  A
C556        H561   1.083       .  S
C557        C558   1.407       .  A
C558        F559   1.358       .  S
C563        C564   1.404       .  A
C563        C568   1.395       .  A
C563        H570   1.083       .  S
C564        C881   1.407       .  A
C565        C566   1.401       .  A
C565        F572   1.357       .  S
C566        H571   1.083       .  S
C567        C682   1.479       .  S
C567        C882   1.406       .  A
C567        C568   1.407       .  A
C568        F569   1.358       .  S
C573        C574   1.405       .  A
C573        C578   1.401       .  A
C573        H580   1.083       .  S
C574        C575   1.408       .  A
C575        C576   1.395       .  A
C575        F582   1.358       .  S
C576        C577   1.404       .  A
C576        H581   1.083       .  S
C577        C578   1.408       .  A
C578        F579   1.357       .  S
C583        C584   1.403       .  A
C583        C588   1.396       .  A
C583        H590   1.083       .  S
C584        C585   1.406       .  A
C585        C586   1.400       .  A
C585        F592   1.357       .  S
C586        C587   1.406       .  A
C586        H591   1.083       .  S
C587        C588   1.408       .  A
C588        F589   1.357       .  S
C593        C594   1.403       .  A
C593        C598   1.395       .  A
C593        H600   1.083       .  S
C595        C910   1.407       .  A
C595        C596   1.401       .  A
C595        F602   1.357       .  S
C596        C913   1.406       .  A
C596        H601   1.083       .  S
C597        C598   1.408       .  A
C598        F599   1.358       .  S
C603        C604   1.403       .  A
C603        C608   1.400       .  A
C603        H610   1.084       .  S
C604        C605   1.405       .  A
C605        C606   1.397       .  A
C605        F612   1.358       .  S
C606        C607   1.405       .  A
C606        H611   1.083       .  S
C607        C608   1.409       .  A
C608        F609   1.357       .  S
C613        C614   1.403       .  A
C613        C618   1.395       .  A
C613        H620   1.083       .  S
C614        C615   1.408       .  A
C615        C616   1.401       .  A
C615        F622   1.357       .  S
C616        C617   1.405       .  A
C616        H621   1.083       .  S
C617        C618   1.408       .  A
C618        F619   1.358       .  S
C623        C624   1.404       .  A
C623        C628   1.395       .  A
C624        C625   1.407       .  A
C625        C626   1.401       .  A
C625        F632   1.357       .  S
C626        C627   1.406       .  A
C626        H631   1.083       .  S
C627        C628   1.408       .  A
C628        F629   1.358       .  S
H630        C939   1.083       .  S
In633       O635   2.234       .  S
In633       O636   2.263       .  S
In633       O644   2.234       .  S
In633       O638   2.253       .  S
In633       O640   2.263       .  S
In633       O641   2.252       .  S
In633       O642   2.237       .  S
In633       O645   2.229       .  S
C634        O640   1.260       .  A
C634        O642   1.257       .  A
C634        C647   1.463       .  S
O635        C643   1.258       .  A
O636        C643   1.261       .  A
C637        O644   1.261       .  A
C637        O638   1.263       .  A
C637        C930   1.479       .  S
C639        O641   1.264       .  A
C639        O645   1.261       .  A
C639        C943   1.480       .  S
C643        C656   1.464       .  S
In646       O648   2.238       .  S
In646       O649   2.268       .  S
In646       O657   2.239       .  S
In646       O651   2.247       .  S
In646       O654   2.255       .  S
C647        O653   1.261       .  A
C647        O655   1.259       .  A
O648        C656   1.257       .  A
O649        C656   1.260       .  A
C650        O657   1.262       .  A
C650        O651   1.262       .  A
C650        C923   1.480       .  S
C652        O654   1.263       .  A
In659       O661   2.235       .  S
In659       O662   2.246       .  S
In659       O670   2.231       .  S
In659       O664   2.252       .  S
In659       O666   2.266       .  S
In659       O667   2.260       .  S
In659       O668   2.237       .  S
In659       O671   2.236       .  S
C660        O666   1.260       .  A
C660        O668   1.257       .  A
C660        C673   1.463       .  S
O661        C669   1.262       .  A
O662        C669   1.263       .  A
C663        O670   1.262       .  A
C663        O664   1.263       .  A
C663        C893   1.480       .  S
C665        O667   1.260       .  A
C665        O671   1.258       .  A
C665        C678   1.462       .  S
C669        C903   1.479       .  S
In672       O675   2.251       .  S
In672       O683   2.233       .  S
In672       O677   2.248       .  S
In672       O680   2.260       .  S
In672       O681   2.235       .  S
In672       O684   2.234       .  S
C673        O679   1.261       .  A
O675        C682   1.263       .  A
C676        O683   1.261       .  A
C676        O677   1.263       .  A
C676        C870   1.479       .  S
C678        O680   1.261       .  A
C678        O684   1.258       .  A
In685       O687   2.238   1_556  S
In685       O690   2.233       .  S
In685       O692   2.261       .  S
In685       O693   2.241       .  S
In685       O694   2.235       .  S
In685       O697   2.245       .  S
C686        O692   1.258       .  A
C686        O694   1.256       .  A
C686        C708   1.459       .  S
O688        C695   1.258       .  A
C689        O690   1.262       .  A
C691        O693   1.261       .  A
C691        O697   1.261       .  A
C691        C860   1.465       .  S
C695        C699   1.460       .  S
In698       O700   2.236       .  S
In698       O701   2.264       .  S
In698       O709   2.252       .  S
In698       O703   2.236       .  S
In698       O705   2.261       .  S
In698       O706   2.236       .  S
In698       O707   2.236       .  S
In698       O710   2.239       .  S
C699        O705   1.259       .  A
C699        O707   1.256       .  A
O700        C708   1.254       .  A
O701        C708   1.258       .  A
C702        O709   1.262       .  A
C702        O703   1.261       .  A
C702        C840   1.469       .  S
C704        O706   1.263       .  A
C704        O710   1.264       .  A
C704        C833   1.478       .  S
In711       O713   2.232       .  S
In711       O714   2.248       .  S
In711       O722   2.226       .  S
In711       O716   2.255       .  S
In711       O718   2.265       .  S
In711       O719   2.254       .  S
In711       O720   2.233       .  S
In711       O723   2.232       .  S
C712        O718   1.261       .  A
C712        O720   1.257       .  A
C712        C725   1.463       .  S
O713        C721   1.261       .  A
O714        C721   1.262       .  A
C715        O722   1.260       .  A
C715        O716   1.263       .  A
C715        C810   1.475       .  S
C717        O719   1.261       .  A
C717        O723   1.259       .  A
C717        C730   1.461       .  S
C721        C823   1.479       .  S
In724       O726   2.233       .  S
In724       O727   2.247       .  S
In724       O729   2.248       .  S
In724       O731   2.266       .  S
In724       O733   2.235       .  S
C725        O731   1.260       .  A
C725        O733   1.257       .  A
O726        C734   1.262       .  A
O727        C734   1.262       .  A
C728        O729   1.263       .  A
C730        O732   1.260       .  A
C730        O736   1.258       .  A
C734        C800   1.478       .  S
In737       O739   2.228   1_665  S
In737       O740   2.243   1_655  S
In737       O748   2.232   1_655  S
In737       O742   2.254   1_655  S
In737       O744   2.261       .  S
In737       O745   2.264       .  S
In737       O746   2.233   1_565  S
In737       O749   2.228       .  S
C738        O744   1.262       .  A
C738        O746   1.258   1_565  A
C738        C863   1.469   1_565  S
O739        C747   1.264       .  A
O740        C747   1.266   1_565  A
C741        O748   1.260       .  A
C741        O742   1.264       .  A
C741        C920   1.475       .  S
C743        O745   1.261       .  A
C743        O749   1.256       .  A
C743        C803   1.476       .  S
C747        C873   1.479       .  S
In750       O752   2.223       .  S
In750       O753   2.260       .  S
In750       O761   2.234       .  S
In750       O755   2.257       .  S
In750       O757   2.257   1_655  S
In750       O758   2.248   1_655  S
In750       O759   2.227   1_655  S
In750       O762   2.224   1_655  S
C751        O757   1.264       .  A
C751        O759   1.260       .  A
C751        C933   1.480       .  S
O752        C760   1.258       .  A
O753        C760   1.263       .  A
C754        O761   1.259       .  A
C754        O755   1.262       .  A
C754        C843   1.468       .  S
C756        O758   1.265       .  A
C756        O762   1.263       .  A
C756        C880   1.479       .  S
C760        C793   1.478       .  S
In763       O765   2.228       .  S
In763       O766   2.256       .  S
In763       O774   2.226   1_565  S
In763       O768   2.262       .  S
In763       O770   2.247       .  S
In763       O771   2.252       .  S
In763       O772   2.225       .  S
In763       O775   2.237       .  S
C764        O770   1.265       .  A
C764        O772   1.263       .  A
C764        C820   1.477       .  S
O765        C773   1.260       .  A
O766        C773   1.264       .  A
C767        O774   1.258       .  A
C767        O768   1.263   1_545  A
C767        C890   1.480       .  S
C769        O771   1.262       .  A
C769        O775   1.259       .  A
C769        C850   1.471   1_565  S
C773        C913   1.480       .  S
In776       O778   2.232       .  S
In776       O781   2.254       .  S
In776       O783   2.253       .  S
In776       O788   2.228       .  S
C777        O783   1.263       .  A
C777        C900   1.475       .  S
O779        C786   1.264       .  A
C780        O781   1.264       .  A
C780        C813   1.478       .  S
C782        O784   1.262       .  A
C782        C940   1.478       .  S
C786        C830   1.476       .  S
C789        C790   1.403   1_556  A
C789        C794   1.394       .  A
C789        H796   1.083       .  S
C791        C792   1.401       .  A
C791        F798   1.357       .  S
C792        H797   1.083       .  S
C793        C794   1.408       .  A
C794        F795   1.358       .  S
C799        C800   1.404       .  A
C799        C804   1.395       .  A
C799        H806   1.083       .  S
C800        C801   1.409       .  A
C801        C802   1.400       .  A
C801        F808   1.357       .  S
C802        C803   1.404       .  A
C802        H807   1.083       .  S
C803        C804   1.407       .  A
C804        F805   1.358       .  S
C809        C810   1.404       .  A
C809        C814   1.402       .  A
C809        H816   1.083       .  S
C810        C811   1.406       .  A
C811        C812   1.394       .  A
C811        F818   1.358       .  S
C812        C813   1.404       .  A
C813        C814   1.408       .  A
C814        F815   1.357       .  S
C819        C820   1.404       .  A
C819        C824   1.395       .  A
C819        H826   1.083       .  S
C820        C821   1.407       .  A
C821        C822   1.400       .  A
C821        F828   1.357       .  S
C822        C823   1.406       .  A
C822        H827   1.083       .  S
C823        C824   1.407       .  A
C824        F825   1.358       .  S
C829        C830   1.403       .  A
C829        C834   1.399       .  A
C829        H836   1.084       .  S
C830        C831   1.407       .  A
C831        C832   1.397       .  A
C831        F838   1.358       .  S
C832        C833   1.404       .  A
C832        H837   1.083       .  S
C833        C834   1.409       .  A
C834        F835   1.357       .  S
C839        C840   1.404       .  A
C839        C844   1.402       .  A
C839        H846   1.084       .  S
C840        C841   1.404       .  A
C841        C842   1.396       .  A
C841        F848   1.358       .  S
C842        C843   1.401       .  A
C842        H847   1.084       .  S
C843        C844   1.405       .  A
C844        F845   1.357       .  S
C849        C850   1.401       .  A
C849        C854   1.398       .  A
C849        H856   1.084       .  S
C850        C851   1.405       .  A
C851        C852   1.398       .  A
C851        F858   1.358   1_545  S
C852        C853   1.404       .  A
C852        H857   1.084       .  S
C853        C854   1.408       .  A
C859        C860   1.402       .  A
C859        C864   1.402       .  A
C859        H866   1.083       .  S
C860        C861   1.402       .  A
C861        C862   1.395       .  A
C861        F868   1.358       .  S
C862        C863   1.402       .  A
C862        H867   1.084       .  S
C863        C864   1.406       .  A
C864        F865   1.357   1_545  S
C869        C870   1.404       .  A
C869        C874   1.396       .  A
C869        H876   1.083       .  S
C870        C871   1.408       .  A
C871        C872   1.400       .  A
C871        F878   1.357       .  S
C872        C873   1.405       .  A
C872        H877   1.083       .  S
C873        C874   1.407       .  A
C874        F875   1.358       .  S
C879        C880   1.404       .  A
C879        C884   1.395       .  A
C879        H886   1.083       .  S
C881        C882   1.401       .  A
C881        F888   1.357       .  S
C882        H887   1.083       .  S
C883        C884   1.407   1_554  A
C884        F885   1.358       .  S
C889        C890   1.405       .  A
C889        C894   1.401       .  A
C889        H896   1.083       .  S
C890        C891   1.408       .  A
C891        C892   1.395       .  A
C891        F898   1.358       .  S
C892        C893   1.404       .  A
C892        H897   1.083       .  S
C893        C894   1.408       .  A
C894        F895   1.357       .  S
C899        C900   1.403       .  A
C899        C904   1.396       .  A
C899        H906   1.083       .  S
C900        C901   1.406       .  A
C901        C902   1.400       .  A
C901        F908   1.357       .  S
C902        C903   1.406       .  A
C902        H907   1.083       .  S
C903        C904   1.408       .  A
C904        F905   1.357       .  S
C909        C910   1.403       .  A
C909        C914   1.395       .  A
C909        H916   1.083       .  S
C911        C912   1.401       .  A
C911        F918   1.357       .  S
C912        H917   1.083       .  S
C913        C914   1.408       .  A
C914        F915   1.358       .  S
C919        C920   1.403       .  A
C919        C924   1.400       .  A
C919        H926   1.084       .  S
C920        C921   1.405       .  A
C921        C922   1.397       .  A
C921        F928   1.358       .  S
C922        C923   1.405       .  A
C922        H927   1.083       .  S
C923        C924   1.409       .  A
C924        F925   1.357       .  S
C929        C930   1.403       .  A
C929        C934   1.395       .  A
C929        H936   1.083       .  S
C930        C931   1.408       .  A
C931        C932   1.401       .  A
C931        F938   1.357       .  S
C932        C933   1.405       .  A
C932        H937   1.083       .  S
C933        C934   1.408       .  A
C934        F935   1.358       .  S
C939        C940   1.404       .  A
C939        C944   1.395       .  A
C940        C941   1.407       .  A
C941        C942   1.401       .  A
C941        F948   1.357       .  S
C942        C943   1.406       .  A
C942        H947   1.083       .  S
C943        C944   1.408       .  A
C944        F945   1.358       .  S
