geometry optimzed in LAMMPS
_audit_creation_date              2020-11-30 
_audit_creation_method            'lammps2cif' 
_symmetry_space_group_name_H-M    'P1' 
_symmetry_Int_Tables_number       1 
_symmetry_cell_setting            triclinic 
loop_ 
_symmetry_equiv_pos_as_xyz 
  x,y,z 
_cell_length_a                    48.7371448 
_cell_length_b                    51.047328577492486 
_cell_length_c                    50.93647975560665 
_cell_angle_alpha                 90.45009330433601 
_cell_angle_beta                  89.77368158299731 
_cell_angle_gamma                 89.28924190414398 
loop_ 
_atom_site_label 
_atom_site_type_symbol 
_atom_site_fract_x 
_atom_site_fract_y 
_atom_site_fract_z 
_atom_site_charge 
Zr1        Zr  0.78519905  0.77750093  0.78124387     2.17500
O2          O  0.82397701  0.80051399  0.80068069    -0.51100
O3          O  0.76966957  0.78985840  0.82506464    -0.74300
O4          O  0.79119875  0.82246399  0.76600069    -0.81100
O5          O  0.81621363  0.71088178  0.79987766    -0.82800
O6          O  0.75562402  0.83450868  0.73989452    -0.78500
O7          O  0.82584539  0.75420216  0.79578981    -0.90100
O8          O  0.72408519  0.78252057  0.82921382    -0.76100
O9          O  0.73795535  0.78896521  0.77712226    -0.85500
O10         O  0.76060104  0.74195527  0.80003466    -0.85200
O11         O  0.77858333  0.78246203  0.73477083    -0.72000
O12         O  0.79867494  0.73869194  0.75721073    -0.84100
Zr13       Zr  0.71889622  0.72015094  0.72361749     2.26400
Zr14       Zr  0.73069370  0.79366212  0.73087840     2.06300
Zr15       Zr  0.77309038  0.70327626  0.77560470     2.10000
Zr16       Zr  0.71340413  0.75269735  0.79446256     1.78800
O17         O  0.80512281  0.66836024  0.76306610    -0.92900
O18         O  0.67322209  0.78123818  0.79929715    -0.40700
O19         O  0.72542413  0.71410796  0.76995454    -0.77400
O20         O  0.70527335  0.75800857  0.74894190    -0.96100
O21         O  0.74374472  0.75549309  0.70543506    -0.89400
O22         O  0.76588067  0.70781273  0.72912415    -0.92200
C23         C  0.74689687  0.79107068  0.83765092     1.01500
C24         C  0.83182744  0.73089921  0.80317918     1.14500
C25         C  0.77806134  0.83939784  0.75221936     1.05300
O26         O  0.69687720  0.82595469  0.74600924    -0.94400
O27         O  0.68717523  0.78783526  0.70777212    -0.90100
O28         O  0.68231099  0.74391831  0.70122364    -0.83300
C29         C  0.67416013  0.76782297  0.69901283     1.11900
O30         O  0.83580584  0.76325830  0.70936341    -0.96300
Zr31       Zr  0.79072608  0.74330822  0.71114614     1.88900
O32         O  0.73415634  0.70386205  0.68084035    -0.73000
O33         O  0.73711908  0.81417766  0.68834140    -0.52200
O34         O  0.79538623  0.77177371  0.67329920    -0.96900
O35         O  0.82911192  0.71250667  0.70688009    -0.54100
O36         O  0.77796410  0.71662661  0.67368297    -0.73500
C37         C  0.75607776  0.70474983  0.66686115     0.98800
O38         O  0.67410335  0.70146851  0.71395661    -0.62300
O39         O  0.76577219  0.68525918  0.81918044    -0.57100
O40         O  0.71476477  0.67482876  0.73663559    -0.93800
O41         O  0.74541557  0.66341831  0.76814891    -0.92200
O42         O  0.71305503  0.72696374  0.83452736    -0.92600
O43         O  0.67030899  0.72919662  0.79741313    -0.91400
C44         C  0.72525471  0.65825454  0.75261769     1.17700
H45         H  0.76513122  0.73974252  0.81832833     0.33600
H46         H  0.68573230  0.76104254  0.74785730     0.44500
H47         H  0.77011041  0.69151508  0.72014983     0.38000
H48         H  0.78992047  0.79585946  0.72719786     0.34500
H49         H  0.66796310  0.77991731  0.81803930     0.26300
H50         H  0.72696643  0.83105593  0.68977465     0.32200
H51         H  0.77720936  0.77153267  0.66469512     0.38100
H52         H  0.69914125  0.73571509  0.84590584     0.32600
H53         H  0.74628131  0.68002570  0.81942768     0.31500
H54         H  0.81093915  0.67261437  0.74498666     0.33100
H55         H  0.82083183  0.69575232  0.70134289     0.32100
H56         H  0.67570440  0.71044797  0.79808818     0.36100
H57         H  0.67772424  0.68654822  0.70183357     0.28800
H58         H  0.81632737  0.81667836  0.80891864     0.33100
H59         H  0.83920239  0.76930858  0.72757172     0.35900
H60         H  0.77624151  0.66851074  0.81905193     0.28500
H61         H  0.66748292  0.69352491  0.73045216     0.41400
H62         H  0.70415770  0.83265652  0.76285525     0.31500
H63         H  0.68038120  0.79920776  0.79753858     0.39100
H64         H  0.83529046  0.70944569  0.72511044     0.30900
H65         H  0.75669648  0.81912449  0.68794942     0.31000
H66         H  0.83546563  0.80657489  0.78589109     0.31300
C67         C  0.86960910  0.00181480  0.74493374    -0.02300
Zr68       Zr  0.77322368  0.21823604  0.72216408     2.17500
O69         O  0.81561682  0.19450191  0.71105873    -0.51100
O70         O  0.76220219  0.21054046  0.67604462    -0.74300
O71         O  0.77141632  0.17124146  0.72882048    -0.81100
O72         O  0.80979706  0.28442274  0.71368736    -0.82800
O73         O  0.73928271  0.16035850  0.75912566    -0.78500
O74         O  0.81593241  0.24015353  0.71207461    -0.90100
O75         O  0.71961667  0.22708192  0.66839515    -0.76100
O76         O  0.72544776  0.20920164  0.72476243    -0.85500
O77         O  0.75153710  0.25667902  0.70544922    -0.85200
O78         O  0.76409431  0.21005118  0.76789319    -0.72000
O79         O  0.78694638  0.25363843  0.75005025    -0.84100
Zr80       Zr  0.70701394  0.27598140  0.78110940     2.26400
Zr81       Zr  0.71554899  0.20203297  0.77054694     2.06300
Zr82       Zr  0.76459199  0.29222255  0.73378127     2.10000
Zr83       Zr  0.70375229  0.24782526  0.70836788     1.78800
O84         O  0.79539805  0.32296506  0.75498189    -0.92900
O85         O  0.66813252  0.21658681  0.69711148    -0.40700
O86         O  0.71634224  0.28401292  0.73572320    -0.77400
O87         O  0.69248702  0.24024820  0.75333983    -0.96100
O88         O  0.72897839  0.23786988  0.79840028    -0.89400
O89         O  0.75467068  0.28501980  0.77931169    -0.92200
C90         C  0.74157610  0.21511411  0.66110871     1.01500
C91         C  0.82441830  0.26366908  0.70918145     1.14500
C92         C  0.75912017  0.15453584  0.74317912     1.05300
O93         O  0.68038946  0.17268663  0.75417072    -0.94400
O94         O  0.67323882  0.20965357  0.79674443    -0.90100
O95         O  0.66717032  0.25381694  0.79734349    -0.83300
C96         C  0.65923381  0.23059738  0.80228245     1.11900
O97         O  0.82241356  0.22643714  0.79727385    -0.96300
Zr98       Zr  0.77681655  0.24635591  0.79519492     1.88900
O99         O  0.72067031  0.28696096  0.82568811    -0.73000
O100        O  0.72153900  0.17680363  0.81056966    -0.52200
O101        O  0.78278391  0.21343784  0.82909952    -0.96900
O102        O  0.81261591  0.27825589  0.80362720    -0.54100
O103        O  0.76127930  0.26722440  0.83530732    -0.73500
C104        C  0.74031630  0.28133712  0.84139479     0.98800
O105        O  0.67066061  0.30528560  0.79756327    -0.62300
O106        O  0.76559658  0.31491662  0.69192394    -0.57100
O107        O  0.70057560  0.32025801  0.76462023    -0.93800
O108        O  0.73763027  0.33285833  0.74089722    -0.92200
O109        O  0.69948612  0.28179795  0.67526465    -0.92600
O110        O  0.65765238  0.26657815  0.70615381    -0.91400
C111        C  0.71415371  0.33743302  0.75184000     1.17700
H112        H  0.75732662  0.26025037  0.68773233     0.33600
H113        H  0.67286973  0.23796081  0.75338761     0.44500
H114        H  0.75892812  0.30032044  0.78972065     0.38000
H115        H  0.77454805  0.19502243  0.77385984     0.34500
H116        H  0.66867874  0.21501445  0.67772787     0.26300
H117        H  0.74158560  0.17376725  0.81190334     0.32200
H118        H  0.76412733  0.21074793  0.83624290     0.38100
H119        H  0.71778543  0.28260290  0.66683073     0.32600
H120        H  0.74612425  0.31897689  0.68805395     0.31500
H121        H  0.79761173  0.33723453  0.74212658     0.33100
H122        H  0.80295109  0.29422189  0.81009625     0.32100
H123        H  0.65627860  0.27837630  0.72163615     0.36100
H124        H  0.65402223  0.30112332  0.78730998     0.28800
H125        H  0.81071861  0.18155225  0.69733092     0.33100
H126        H  0.83001087  0.22829206  0.77933469     0.35900
H127        H  0.77378369  0.33212709  0.69597721     0.28500
H128        H  0.66652323  0.29970773  0.81572493     0.41400
H129        H  0.66432408  0.18417010  0.75064484     0.31500
H130        H  0.67512671  0.19948403  0.70341108     0.39100
H131        H  0.81951429  0.28301078  0.78600812     0.30900
H132        H  0.71711923  0.18923091  0.82503809     0.31000
H133        H  0.82057086  0.18403182  0.72667631     0.31300
C134        C  0.62264484  0.50178388  0.75254744    -0.02300
C135        C  0.74865822  0.62276919  0.50098898    -0.02300
Zr136      Zr  0.71778124  0.78264666  0.22713391     2.17500
O137        O  0.68099764  0.80897483  0.20758943    -0.51100
O138        O  0.73243762  0.79205018  0.18223893    -0.74300
O139        O  0.71505314  0.82784657  0.24223461    -0.81100
O140        O  0.67879260  0.71948874  0.21180067    -0.82800
O141        O  0.75062380  0.83806702  0.26886978    -0.78500
O142        O  0.67476318  0.76371509  0.21539353    -0.90100
O143        O  0.77618780  0.77799506  0.17531314    -0.76100
O144        O  0.76560215  0.79000673  0.23040108    -0.85500
O145        O  0.73827272  0.74435851  0.20812867    -0.85200
O146        O  0.72534474  0.78782523  0.27355141    -0.72000
O147        O  0.70138605  0.74657513  0.25265991    -0.84100
Zr148      Zr  0.78055290  0.72047057  0.28252293     2.26400
Zr149      Zr  0.77383224  0.79517917  0.27673179     2.06300
Zr150      Zr  0.72250758  0.70825495  0.23376908     2.10000
Zr151      Zr  0.78634582  0.75113101  0.21233153     1.78800
O152        O  0.69027986  0.67803678  0.25352963    -0.92900
O153        O  0.82711343  0.77781327  0.20751306    -0.40700
O154        O  0.77102705  0.71456701  0.23687496    -0.77400
O155        O  0.79624641  0.75711316  0.25748731    -0.96100
O156        O  0.75948834  0.75808049  0.30212313    -1.01400
O157        O  0.73259214  0.71258498  0.27974331    -0.92200
C158        C  0.75416864  0.78950579  0.16807716     1.01500
C159        C  0.66549507  0.74129110  0.20893432     1.14500
C160        C  0.72845277  0.84410468  0.25633905     1.05300
O161        O  0.80763161  0.82691454  0.26262364    -0.94400
O162        O  0.81696723  0.78621606  0.30040545    -0.90100
O163        O  0.81969391  0.74175421  0.30210159    -0.83300
C164        C  0.82928416  0.76463861  0.30657043     1.11900
O165        O  0.66462214  0.76712661  0.30177381    -0.96300
Zr166      Zr  0.71162805  0.75060058  0.29860429     1.88900
O167        O  0.76911791  0.70984384  0.32733371    -0.73000
O168        O  0.76636228  0.81397382  0.32030688    -0.52200
O169        O  0.70670888  0.78588010  0.33081054    -0.96900
O170        O  0.67633727  0.71875284  0.30881160    -0.54100
O171        O  0.72873020  0.72964083  0.33835882    -0.73500
C172        C  0.74995520  0.71554517  0.34373168     0.98800
O173        O  0.82073233  0.69173407  0.28638963    -0.62300
O174        O  0.72214215  0.68320917  0.19279776    -0.57100
O175        O  0.77901168  0.67400964  0.27184715    -0.93800
O176        O  0.74917486  0.66747357  0.23821352    -0.92200
O177        O  0.78743328  0.72288915  0.17358880    -0.92600
O178        O  0.82760937  0.72372847  0.21098517    -0.91400
C179        C  0.76756235  0.65947568  0.25446539     1.17700
H180        H  0.73300754  0.74209642  0.19000361     0.33600
H181        H  0.81596566  0.75874231  0.25794595     0.44500
H182        H  0.72777878  0.69697931  0.28921358     0.38000
H183        H  0.71492373  0.80222309  0.28110490     0.34500
H184        H  0.83262176  0.77561932  0.18888932     0.26300
H185        H  0.77168540  0.79990800  0.33263382     0.32200
H186        H  0.69561410  0.77839237  0.34517071     0.38100
H187        H  0.77869612  0.70648643  0.17936675     0.32600
H188        H  0.70343521  0.67595769  0.19160201     0.31500
H189        H  0.68424114  0.66674290  0.23881283     0.33100
H190        H  0.68570247  0.70489065  0.31902984     0.32100
H191        H  0.82662564  0.71303400  0.22709216     0.36100
H192        H  0.83565578  0.70044352  0.27666495     0.28800
H193        H  0.68977417  0.82444562  0.19966959     0.33100
H194        H  0.66170878  0.77691069  0.28529009     0.35900
H195        H  0.72294309  0.69639622  0.17869114     0.28500
H196        H  0.82621769  0.69246262  0.30508216     0.41400
H197        H  0.82387136  0.81626577  0.25731571     0.31500
H198        H  0.82025082  0.79611481  0.20884176     0.39100
H199        H  0.67210380  0.71030794  0.29176999     0.30900
H200        H  0.78087904  0.82723312  0.32223193     0.31000
H201        H  0.66971832  0.81600314  0.22232424     0.31300
C202        C  0.75416500  0.86690432  0.00302418    -0.02300
C203        C  0.50203224  0.75687777  0.11248752    -0.02300
C204        C  0.36886314  0.00262611  0.74810249    -0.02300
C205        C  0.74475948  0.36009184  0.00789798    -0.02300
C206        C  0.24629290  0.63171690  0.99599628    -0.02300
C207        C  0.13650038  0.50739651  0.74854539    -0.02300
C208        C  0.74357122  0.14303325  0.49159802    -0.02300
C209        C  0.00327051  0.75265162  0.38561207    -0.02300
Zr210      Zr  0.28489764  0.73213362  0.21711555     2.17500
O211        O  0.32662007  0.70912806  0.20257119    -0.51100
O212        O  0.27216331  0.71826558  0.17274759    -0.74300
O213        O  0.28840853  0.68684671  0.23232987    -0.81100
O214        O  0.31915408  0.79920737  0.20193571    -0.82800
O215        O  0.25315269  0.67675189  0.25966114    -0.78500
O216        O  0.32604032  0.75513290  0.20468652    -0.90100
O217        O  0.22936617  0.73394019  0.16447313    -0.76100
O218        O  0.23721037  0.72293918  0.22033040    -0.85500
O219        O  0.26255342  0.76923363  0.19797103    -0.85200
O220        O  0.27647551  0.72755069  0.26344501    -0.72000
O221        O  0.29819674  0.77012176  0.24187667    -0.84100
Zr222      Zr  0.21783258  0.79246458  0.27300463     2.26400
Zr223      Zr  0.22816225  0.71867789  0.26664189     2.06300
Zr224      Zr  0.27475675  0.80715903  0.22350760     2.10000
Zr225      Zr  0.21500300  0.76034465  0.20161795     1.78800
O226        O  0.30654188  0.83923349  0.24096012    -0.92900
O227        O  0.17630409  0.73207057  0.19195658    -0.40700
O228        O  0.22692008  0.79811878  0.22697903    -0.77400
O229        O  0.20430499  0.75508449  0.24698995    -0.96100
O230        O  0.24127198  0.75631337  0.29217091    -0.89400
O231        O  0.26519100  0.80273679  0.26953341    -0.92200
C232        C  0.25096831  0.72087607  0.15806325     1.01500
C233        C  0.33389477  0.77828883  0.19899488     1.14500
C234        C  0.27535850  0.67078503  0.24696529     1.05300
O235        O  0.19557799  0.68593870  0.25209930    -0.94400
O236        O  0.18408639  0.72621488  0.28962347    -0.90100
O237        O  0.17791692  0.77039955  0.28975882    -0.83300
C238        C  0.16985912  0.74714538  0.29458341     1.11900
O239        O  0.33585515  0.74943856  0.28802672    -0.96300
Zr240      Zr  0.28876729  0.76599837  0.28757117     1.88900
O241        O  0.22962650  0.80379649  0.31844974    -0.73000
O242        O  0.23324493  0.70173129  0.31092786    -0.52200
O243        O  0.29546462  0.73378753  0.32203778    -0.96900
O244        O  0.32414525  0.79828137  0.29626819    -0.54100
O245        O  0.27320505  0.78979374  0.32602893    -0.73500
C246        C  0.25087665  0.80131510  0.33309888     0.98800
O247        O  0.18000547  0.82226715  0.28462576    -0.62300
O248        O  0.27139704  0.82605853  0.17986947    -0.57100
O249        O  0.21243255  0.83655856  0.25622845    -0.93800
O250        O  0.24827665  0.84824347  0.23033797    -0.92200
O251        O  0.21329604  0.78755825  0.16257393    -0.92600
O252        O  0.17192965  0.78509837  0.20065703    -0.91400
C253        C  0.22541251  0.85323139  0.24230964     1.17700
H254        H  0.26804225  0.77134672  0.17987726     0.33600
H255        H  0.18471759  0.75248208  0.24696452     0.44500
H256        H  0.26908423  0.81873823  0.27892072     0.38000
H257        H  0.28735099  0.71373607  0.27119314     0.34500
H258        H  0.18451511  0.71447955  0.18884606     0.26300
H259        H  0.22320035  0.68499570  0.31075344     0.32200
H260        H  0.27955079  0.73633007  0.33396074     0.38100
H261        H  0.21164603  0.80575565  0.16928644     0.32600
H262        H  0.25233465  0.83284164  0.17870228     0.31500
H263        H  0.32147163  0.82861012  0.24883296     0.33100
H264        H  0.32984819  0.79508135  0.31461704     0.32100
H265        H  0.17617903  0.80234640  0.20859230     0.36100
H266        H  0.16402446  0.81639294  0.27426476     0.28800
H267        H  0.32069199  0.69257076  0.19420706     0.33100
H268        H  0.33702623  0.73716617  0.27290314     0.35900
H269        H  0.28283267  0.84193200  0.18071420     0.28500
H270        H  0.17523953  0.81853795  0.30313036     0.41400
H271        H  0.18446821  0.69496865  0.23860468     0.31500
H272        H  0.16618626  0.73046215  0.20873614     0.39100
H273        H  0.31441575  0.81539844  0.29704970     0.30900
H274        H  0.25281481  0.69649202  0.31218586     0.31000
H275        H  0.33626284  0.70377189  0.21879385     0.31300
C276        C  0.25224661  0.88067119  0.50018592    -0.02300
C277        C  0.87108197  0.50444740  0.24793195    -0.02300
Zr278      Zr  0.77845850  0.28338595  0.21687355     2.17500
O279        O  0.77871937  0.31834185  0.18442321    -0.51100
O280        O  0.82672043  0.27436258  0.20695976    -0.74300
O281        O  0.79279730  0.32529643  0.23537321    -0.81100
O282        O  0.74392580  0.23988965  0.16340343    -0.82800
O283        O  0.78957365  0.32422663  0.27997162    -0.78500
O284        O  0.77157105  0.27481929  0.17055126    -0.90100
O285        O  0.83880160  0.23560798  0.22545935    -0.76100
O286        O  0.79797257  0.26965006  0.25729726    -0.85500
O287        O  0.78143939  0.23693176  0.21333768    -0.85200
O288        O  0.74669337  0.29821436  0.25019261    -0.72000
O289        O  0.73259734  0.26841808  0.20942628    -0.84100
Zr290      Zr  0.72435877  0.22153084  0.28029814     2.26400
Zr291      Zr  0.76595882  0.28339471  0.29099459     2.06300
Zr292      Zr  0.73564699  0.22160659  0.20679131     2.10000
Zr293      Zr  0.80101452  0.22323581  0.25373166     1.78800
O294        O  0.69248891  0.21902293  0.18302928    -0.92900
O295        O  0.83580760  0.23337676  0.28638668    -0.40700
O296        O  0.75571274  0.20684931  0.24690712    -0.77400
O297        O  0.77028543  0.23643346  0.28823836    -0.96100
O298        O  0.72028966  0.26783064  0.28406758    -0.89400
O299        O  0.70419728  0.23539993  0.24035552    -0.92200
C300        C  0.84364208  0.25529800  0.21076449     1.01500
C301        C  0.75846495  0.25912163  0.15547250     1.14500
C302        C  0.79576427  0.33561180  0.25826969     1.05300
O303        O  0.80551807  0.29018184  0.31919536    -0.94400
O304        O  0.75622413  0.26498007  0.33488520    -0.90100
O305        O  0.72981073  0.22959463  0.32644213    -0.83300
C306        C  0.74184890  0.24524105  0.34220154     1.11900
O307        O  0.69520752  0.32201316  0.21852262    -0.96300
Zr308      Zr  0.70141894  0.28187365  0.24343569     1.88900
O309        O  0.67682993  0.23171766  0.29137565    -0.73000
O310        O  0.73720222  0.31727275  0.31140659    -0.52200
O311        O  0.68636683  0.31890262  0.27057235    -0.96900
O312        O  0.66738264  0.27710962  0.20886075    -0.54100
O313        O  0.66167502  0.26596140  0.26693588    -0.73500
C314        C  0.65827043  0.24813463  0.28418197     0.98800
O315        O  0.72006737  0.18192996  0.30649582    -0.62300
O316        O  0.75888725  0.18730680  0.18136692    -0.57100
O317        O  0.71251766  0.17875030  0.26309076    -0.93800
O318        O  0.71501554  0.17986043  0.21854463    -0.92200
O319        O  0.81960236  0.18464367  0.23128328    -0.92600
O320        O  0.80737672  0.18406849  0.28014394    -0.91400
C321        C  0.70980574  0.16828840  0.24030750     1.17700
H322        H  0.79278473  0.23160170  0.19861900     0.33600
H323        H  0.77745013  0.22945963  0.30435455     0.44500
H324        H  0.68644853  0.22759499  0.23776006     0.38000
H325        H  0.74498827  0.31706391  0.25024413     0.34500
H326        H  0.85206857  0.22284434  0.28092439     0.26300
H327        H  0.74814327  0.32384821  0.32634332     0.32200
H328        H  0.67814874  0.31107964  0.28644610     0.38100
H329        H  0.81327318  0.18634252  0.21292460     0.32600
H330        H  0.76391244  0.17378264  0.19439075     0.31500
H331        H  0.69540529  0.20470125  0.17006228     0.33100
H332        H  0.65925534  0.25967725  0.21169147     0.32100
H333        H  0.79265996  0.18498916  0.29358430     0.36100
H334        H  0.73733298  0.18037676  0.31658085     0.28800
H335        H  0.79733860  0.32587150  0.18499650     0.33100
H336        H  0.71179508  0.32291028  0.20728074     0.35900
H337        H  0.74422286  0.17922210  0.17075178     0.28500
H338        H  0.70561835  0.18581159  0.31974333     0.41400
H339        H  0.79823554  0.30012385  0.33452609     0.31500
H340        H  0.84104552  0.25171410  0.28294450     0.39100
H341        H  0.67826980  0.27500611  0.19250410     0.30900
H342        H  0.73699407  0.33186843  0.29871397     0.31000
H343        H  0.76634052  0.33224428  0.19147305     0.31300
C344        C  0.62788864  0.00338837  0.24698244    -0.02300
C345        C  0.49310271  0.24385177  0.89441044    -0.02300
Zr346      Zr  0.21509365  0.28320255  0.72374210     2.17500
O347        O  0.17064187  0.30571413  0.72210884    -0.51100
O348        O  0.22575461  0.29261290  0.67837606    -0.74300
O349        O  0.21830036  0.33043205  0.72892515    -0.81100
O350        O  0.17777626  0.21779296  0.71572798    -0.82800
O351        O  0.25169521  0.34105334  0.75804512    -0.78500
O352        O  0.17581630  0.26110005  0.70513869    -0.90100
O353        O  0.26677008  0.27362435  0.66785962    -0.76100
O354        O  0.26308500  0.29140073  0.72340491    -0.85500
O355        O  0.23552206  0.24385487  0.70694153    -0.85200
O356        O  0.22653011  0.29261538  0.76861375    -0.72000
O357        O  0.20092123  0.24888498  0.75234823    -0.84100
Zr358      Zr  0.28235973  0.22647569  0.78076394     2.26400
Zr359      Zr  0.27520637  0.29970862  0.76836996     2.06300
Zr360      Zr  0.22254808  0.20952904  0.73620649     2.10000
Zr361      Zr  0.28348714  0.25195139  0.70705352     1.78800
O362        O  0.19211601  0.18057299  0.76014466    -0.92900
O363        O  0.32108710  0.28137076  0.69734534    -0.40700
O364        O  0.27077075  0.21748259  0.73597212    -0.77400
O365        O  0.29687213  0.26047104  0.75148784    -0.96100
O366        O  0.26159710  0.26559752  0.79760655    -0.89400
O367        O  0.23444332  0.21797114  0.78109335    -0.92200
C368        C  0.24523763  0.28711301  0.66223781     1.01500
C369        C  0.16589308  0.23794141  0.70550511     1.14500
C370        C  0.23171013  0.34704749  0.74273064     1.05300
O371        O  0.30929329  0.32801690  0.74854316    -0.94400
O372        O  0.31846410  0.29297015  0.79192552    -0.90100
O373        O  0.32101597  0.24921352  0.79956220    -0.83300
C374        C  0.33031363  0.27245858  0.80132665     1.11900
O375        O  0.16938941  0.28054813  0.79800777    -0.96300
Zr376      Zr  0.21349959  0.25761638  0.79668797     1.88900
O377        O  0.26858369  0.21614804  0.82546008    -0.73000
O378        O  0.27344988  0.32488084  0.80915945    -0.52200
O379        O  0.20586874  0.28934859  0.83198367    -0.96900
O380        O  0.17968436  0.22422462  0.80618269    -0.54100
O381        O  0.23036911  0.23942109  0.83692543    -0.73500
C382        C  0.25030017  0.22387859  0.84209969     0.98800
O383        O  0.32142812  0.19826414  0.79191070    -0.62300
O384        O  0.22011024  0.18340055  0.69606799    -0.57100
O385        O  0.28774757  0.18157816  0.76524645    -0.93800
O386        O  0.25050778  0.16948370  0.74154100    -0.92200
O387        O  0.28517270  0.22019906  0.67111084    -0.92600
O388        O  0.32688644  0.22785980  0.70472477    -0.91400
C389        C  0.27398980  0.16472955  0.75210194     1.17700
H390        H  0.22912882  0.24000788  0.68943379     0.33600
H391        H  0.31658785  0.26200112  0.75140790     0.44500
H392        H  0.23010466  0.20319195  0.79200767     0.38000
H393        H  0.21677199  0.30804772  0.77479712     0.34500
H394        H  0.32357204  0.28009005  0.67807851     0.26300
H395        H  0.28235242  0.34167184  0.80493200     0.32200
H396        H  0.22441724  0.29321775  0.83872775     0.38100
H397        H  0.29570363  0.22887654  0.65703925     0.32600
H398        H  0.23947121  0.17990755  0.69104060     0.31500
H399        H  0.19914068  0.16264169  0.75641881     0.33100
H400        H  0.16788992  0.22365566  0.79041056     0.32100
H401        H  0.32416188  0.21240900  0.71603712     0.36100
H402        H  0.33766757  0.20570322  0.78304611     0.28800
H403        H  0.17206542  0.31855958  0.70771168     0.33100
H404        H  0.16639820  0.28645308  0.77976340     0.35900
H405        H  0.21310715  0.16620848  0.70174187     0.28500
H406        H  0.32464586  0.20086000  0.81093900     0.41400
H407        H  0.30701096  0.34508338  0.75772607     0.31500
H408        H  0.31340278  0.29918177  0.70038055     0.39100
H409        H  0.16783609  0.23202105  0.82008485     0.30900
H410        H  0.25381675  0.32950483  0.81161437     0.31000
H411        H  0.16931060  0.31637411  0.73840478     0.31300
C412        C  0.99380154  0.25717422  0.62484461    -0.02300
C413        C  0.99572716  0.25847138  0.09682790    -0.02300
Zr414      Zr  0.02768332  0.03839956  0.02674856     2.17500
O415        O  0.01848646  0.06613126  0.06508640    -0.51100
O416        O  0.07518181  0.05059406  0.01940044    -0.74300
O417        O  0.04837736  0.01980101  0.06576303    -0.81100
O418        O  0.99501597  0.09177818  0.98574415    -0.82800
O419        O  0.03824202  0.97646204  0.06817969    -0.78500
O420        O  0.02441703  0.08455257  0.01965106    -0.90100
O421        O  0.08970340  0.02967586  0.98229322    -0.76100
O422        O  0.04786973  0.99789691  0.01356909    -0.85500
O423        O  0.03200307  0.04222063  0.98029447    -0.85200
O424        O  0.99609134  0.00579183  0.04109791    -0.72000
O425        O  0.98229465  0.04672348  0.01015187    -0.84100
Zr426      Zr  0.97598378  0.97607346  0.96308811     2.26400
Zr427      Zr  0.01576745  0.96492308  0.02630209     2.06300
Zr428      Zr  0.98667258  0.04937793  0.96326700     2.10000
Zr429      Zr  0.05254811  0.00174464  0.96733309     1.78800
O430        O  0.94513508  0.07559744  0.95651978    -0.92900
O431        O  0.08865707  0.97048229  0.97893302    -0.40700
O432        O  0.00754625  0.00887138  0.94900045    -0.77400
O433        O  0.02138705  0.96794684  0.97952994    -0.96100
O434        O  0.97087150  0.97266679  0.00929667    -0.89400
O435        O  0.95533567  0.01640009  0.97679138    -0.92200
C436        C  0.09325297  0.04557323  0.00161860     1.01500
C437        C  0.01007044  0.09960228  0.00502440     1.14500
C438        C  0.04872267  0.99764960  0.07755475     1.05300
O439        O  0.05473372  0.93502143  0.03065427    -0.94400
O440        O  0.00430100  0.92203450  0.00666973    -0.90100
O441        O  0.97664878  0.92987487  0.97158711    -0.83300
C442        C  0.98907928  0.91448431  0.98742450     1.11900
O443        O  0.94377519  0.03958269  0.06276746    -0.96300
Zr444      Zr  0.95130677  0.01329325  0.02322228     1.88900
O445        O  0.92905536  0.96352785  0.97182568    -0.73000
O446        O  0.98757057  0.94333327  0.05910598    -0.52200
O447        O  0.93274877  0.98809137  0.05946167    -0.96900
O448        O  0.91481608  0.04562036  0.01657206    -0.54100
O449        O  0.91437482  0.98616552  0.00792252    -0.73500
C450        C  0.91107527  0.96942041  0.98942162     0.98800
O451        O  0.98610181  0.94950068  0.92408159    -0.62300
O452        O  0.01110182  0.07415932  0.93008005    -0.57100
O453        O  0.95378445  0.99301424  0.92439371    -0.93800
O454        O  0.96423067  0.03618034  0.92135451    -0.92200
O455        O  0.07136362  0.02403127  0.92935668    -0.92600
O456        O  0.06218869  0.97326209  0.92978204    -0.91400
C457        C  0.95335848  0.01494668  0.91230901     1.17700
H458        H  0.04348215  0.05674557  0.97556477     0.33600
H459        H  0.02847047  0.95163083  0.97253221     0.44500
H460        H  0.93756808  0.01901374  0.96881747     0.38000
H461        H  0.99465653  0.00605010  0.06000250     0.34500
H462        H  0.10482175  0.97594994  0.96859438     0.26300
H463        H  0.99561881  0.92551577  0.06066450     0.32200
H464        H  0.94845741  0.98504123  0.07135055     0.38100
H465        H  0.05510312  0.03082539  0.91988839     0.32600
H466        H  0.01020866  0.06326868  0.91394208     0.31500
H467        H  0.94915382  0.09337901  0.96322546     0.33100
H468        H  0.90316827  0.03817673  0.00256363     0.32100
H469        H  0.04431478  0.97154550  0.92081564     0.36100
H470        H  0.99208371  0.96200170  0.91050808     0.28800
H471        H  0.03675020  0.07110018  0.07180348     0.33100
H472        H  0.96237584  0.04347360  0.06933083     0.35900
H473        H  0.99889781  0.08935834  0.92649636     0.28500
H474        H  0.00308166  0.93961429  0.92840237     0.41400
H475        H  0.05077117  0.92496611  0.04674501     0.31500
H476        H  0.09348678  0.97475357  0.99732651     0.39100
H477        H  0.92400085  0.06062607  0.00822826     0.30900
H478        H  0.99188441  0.95205983  0.07598451     0.31000
H479        H  0.01090989  0.05436251  0.07858544     0.31300
Zr480      Zr  0.21039092  0.23597505  0.22037421     2.17500
O481        O  0.20445375  0.19948102  0.18969600    -0.51100
O482        O  0.16467700  0.24864207  0.20663022    -0.74300
O483        O  0.19064530  0.19710030  0.23976409    -0.81100
O484        O  0.25523724  0.26882033  0.16833122    -0.82800
O485        O  0.19766887  0.19683522  0.28378094    -0.78500
O486        O  0.22575523  0.23530178  0.17533027    -0.90100
O487        O  0.15248119  0.28834141  0.22343243    -0.76100
O488        O  0.18911684  0.25400026  0.25861529    -0.85500
O489        O  0.21070158  0.28206671  0.21350517    -0.85200
O490        O  0.23877994  0.22098426  0.25573182    -0.72000
O491        O  0.25758895  0.24746664  0.21483377    -0.84100
Zr492      Zr  0.26567721  0.29831832  0.28325042     2.26400
Zr493      Zr  0.21785404  0.24007089  0.29438802     2.06300
Zr494      Zr  0.25798282  0.29399558  0.20913527     2.10000
Zr495      Zr  0.19025168  0.30025297  0.25210880     1.78800
O496        O  0.30212495  0.29694149  0.18677415    -0.92900
O497        O  0.15158184  0.29768078  0.28238606    -0.40700
O498        O  0.23732759  0.31271494  0.24774447    -0.77400
O499        O  0.21804235  0.28706847  0.28876409    -0.96100
O500        O  0.26514614  0.25210542  0.28960115    -0.89400
O501        O  0.28650438  0.28022375  0.24478917    -0.92200
C502        C  0.14798002  0.26808212  0.20915407     1.01500
C503        C  0.24204339  0.24845018  0.16092324     1.14500
C504        C  0.18922496  0.18612266  0.26227733     1.05300
O505        O  0.17300132  0.24198763  0.31544410    -0.94400
O506        O  0.22679009  0.26108280  0.33739153    -0.90100
O507        O  0.25795040  0.29303315  0.32993037    -0.83300
C508        C  0.24267932  0.27963376  0.34515698     1.11900
O509        O  0.29276899  0.19253595  0.22779175    -0.96300
Zr510      Zr  0.28532000  0.23403320  0.25085654     1.88900
O511        O  0.31343468  0.28821889  0.29428469    -0.73000
O512        O  0.23394553  0.20669000  0.32491186    -0.52200
O513        O  0.29550021  0.19876605  0.28135992    -0.96900
O514        O  0.32394646  0.23420740  0.22027981    -0.54100
O515        O  0.32259136  0.24746801  0.27814179    -0.73500
C516        C  0.32890097  0.26785469  0.29137055     0.98800
O517        O  0.26872870  0.33909650  0.30841525    -0.62300
O518        O  0.23463840  0.32389876  0.17924648    -0.57100
O519        O  0.28084749  0.33896288  0.26362838    -0.93800
O520        O  0.27932433  0.33624280  0.21906689    -0.92200
O521        O  0.18233976  0.33830224  0.22445501    -0.92600
O522        O  0.18138940  0.34166699  0.27485437    -0.91400
C523        C  0.28464435  0.34844856  0.24064973     1.17700
H524        H  0.20071115  0.28685289  0.19788541     0.33600
H525        H  0.21053906  0.29578117  0.30412834     0.44500
H526        H  0.30499576  0.28641050  0.24241858     0.38000
H527        H  0.23929889  0.20214352  0.25641559     0.34500
H528        H  0.13647378  0.30726272  0.27356154     0.26300
H529        H  0.23996289  0.19166913  0.31381669     0.32200
H530        H  0.27807949  0.18923568  0.28336535     0.38100
H531        H  0.20057474  0.34642938  0.22256515     0.32600
H532        H  0.23732001  0.34160762  0.18678995     0.31500
H533        H  0.29764889  0.30066377  0.16822237     0.33100
H534        H  0.33575893  0.24868544  0.22630227     0.32100
H535        H  0.19950737  0.34697345  0.28165646     0.36100
H536        H  0.25081939  0.34132308  0.31746848     0.28800
H537        H  0.18470525  0.19514630  0.19021797     0.33100
H538        H  0.27441210  0.18453247  0.22664355     0.35900
H539        H  0.24599658  0.32357536  0.16309169     0.28500
H540        H  0.28222774  0.33580837  0.32253392     0.41400
H541        H  0.17337373  0.22729848  0.32802803     0.31500
H542        H  0.14597729  0.27911605  0.28173527     0.39100
H543        H  0.31606010  0.24048144  0.20354928     0.30900
H544        H  0.25117597  0.21364005  0.33227516     0.31000
H545        H  0.21409512  0.18421475  0.19744425     0.31300
C546        C  0.12419149  0.01220264  0.24769453    -0.02300
Zr547      Zr  0.95982260  0.03525302  0.52427096     2.17500
O548        O  0.91812221  0.05043016  0.54677214    -0.51100
O549        O  0.96971088  0.08084051  0.53690913    -0.74300
O550        O  0.95684043  0.02087948  0.56966798    -0.81100
O551        O  0.92463074  0.04807322  0.45735433    -0.82800
O552        O  0.99494533  0.99767164  0.58127579    -0.78500
O553        O  0.91730519  0.04343955  0.50117748    -0.90100
O554        O  0.01062403  0.09184650  0.51912865    -0.76100
O555        O  0.00757813  0.03535454  0.53381314    -0.85500
O556        O  0.98033311  0.05460407  0.48671470    -0.85200
O557        O  0.97217076  0.98970081  0.53040274    -0.72000
O558        O  0.94815432  0.00830227  0.48712153    -0.84100
Zr559      Zr  0.02995322  0.98259130  0.46502257     2.26400
Zr560      Zr  0.02068475  0.99008646  0.53953956     2.06300
Zr561      Zr  0.96962638  0.02740471  0.44943302     2.10000
Zr562      Zr  0.02809585  0.05406195  0.49578477     1.78800
O563        O  0.93916173  0.00624036  0.41822007    -0.92900
O564        O  0.06316962  0.06636011  0.52735450    -0.40700
O565        O  0.01770330  0.02752739  0.45839284    -0.77400
O566        O  0.04219833  0.00953477  0.50192201    -0.96100
O567        O  0.00937286  0.96307566  0.50238117    -0.89400
O568        O  0.98237700  0.98225921  0.45505431    -0.92200
C569        C  0.98919607  0.09710223  0.53281115     1.01500
C570        C  0.90944896  0.04973153  0.47804948     1.14500
C571        C  0.97128165  0.00823634  0.58648720     1.05300
O572        O  0.05481447  0.00913867  0.56846258    -0.94400
O573        O  0.06498712  0.96683397  0.53086647    -0.90100
O574        O  0.06692985  0.96024064  0.48669982    -0.83300
C575        C  0.07678999  0.95789228  0.50979168     1.11900
O576        O  0.91664094  0.95736896  0.51226378    -0.96300
Zr577      Zr  0.96176032  0.96346570  0.49272845     1.88900
O578        O  0.02254004  0.93745724  0.45174262    -0.73000
O579        O  0.01977192  0.94900766  0.56357974    -0.52200
O580        O  0.95968157  0.92764906  0.52393069    -0.96900
O581        O  0.92597534  0.95241624  0.46138779    -0.54100
O582        O  0.98264347  0.92561675  0.47120112    -0.73500
C583        C  0.00419393  0.92062396  0.45746329     0.98800
O584        O  0.07388331  0.98697199  0.44236461    -0.62300
O585        O  0.96830631  0.06947174  0.42720593    -0.57100
O586        O  0.02962227  0.99058148  0.41836325    -0.93800
O587        O  0.99730344  0.02160016  0.40888717    -0.92200
O588        O  0.02621893  0.08877112  0.46327138    -0.92600
O589        O  0.07286198  0.05937234  0.47524071    -0.91400
C590        C  0.01758662  0.00629514  0.40249051     1.17700
H591        H  0.97345169  0.07220134  0.48404303     0.33600
H592        H  0.06191224  0.00952406  0.50400239     0.44500
H593        H  0.97878667  0.97208644  0.43936797     0.38000
H594        H  0.96212453  0.98157143  0.54440700     0.34500
H595        H  0.06754092  0.08475171  0.52314392     0.26300
H596        H  0.03009783  0.95262191  0.57989280     0.32200
H597        H  0.97908526  0.92352389  0.52805248     0.38100
H598        H  0.03947222  0.10197309  0.46946256     0.32600
H599        H  0.98780411  0.07413067  0.42478571     0.31500
H600        H  0.94023797  0.01703791  0.40220089     0.33100
H601        H  0.93441547  0.93922527  0.44941110     0.32100
H602        H  0.07178468  0.04923428  0.45863172     0.36100
H603        H  0.08663749  0.99436718  0.45549342     0.28800
H604        H  0.92423753  0.06000094  0.56264653     0.33100
H605        H  0.91338283  0.97334550  0.52303315     0.35900
H606        H  0.96170802  0.06542734  0.40928583     0.28500
H607        H  0.08067687  0.96888548  0.43899156     0.41400
H608        H  0.06919781  0.01565145  0.55646942     0.31500
H609        H  0.05342213  0.06747848  0.54443270     0.39100
H610        H  0.92366268  0.96826447  0.45052218     0.30900
H611        H  0.00050204  0.94712893  0.56943018     0.31000
H612        H  0.90907740  0.03451847  0.55344048     0.31300
C613        C  0.25295063  0.14719278  0.00829057    -0.02300
Zr614      Zr  0.46920450  0.02578450  0.96543591     2.17500
O615        O  0.47230271  0.05287175  0.92629080    -0.51100
O616        O  0.42267528  0.03974906  0.97519550    -0.74300
O617        O  0.44915187  0.00506709  0.92712449    -0.81100
O618        O  0.50053426  0.08145931  0.00695113    -0.82800
O619        O  0.46141838  0.96198815  0.92462283    -0.78500
O620        O  0.47386908  0.07224115  0.97153419    -0.90100
O621        O  0.40745882  0.01659210  0.01014543    -0.76100
O622        O  0.44980031  0.98606029  0.98023713    -0.85500
O623        O  0.46519720  0.03138956  0.01167249    -0.85200
O624        O  0.50137454  0.99258211  0.95144863    -0.72000
O625        O  0.51442390  0.03469059  0.98115318    -0.84100
Zr626      Zr  0.52336260  0.96607573  0.03013479     2.26400
Zr627      Zr  0.48235122  0.95253347  0.96767121     2.06300
Zr628      Zr  0.51036461  0.03928124  0.02798774     2.10000
Zr629      Zr  0.44625894  0.99155212  0.02657636     1.78800
O630        O  0.55181338  0.06526828  0.03119406    -0.92900
O631        O  0.41006719  0.95937889  0.02170939    -0.40700
O632        O  0.49126238  0.99937924  0.04376801    -0.77400
O633        O  0.47785295  0.95738867  0.01447554    -0.96100
O634        O  0.52765616  0.96058585  0.98381189    -0.89400
O635        O  0.54244504  0.00584688  0.01505212    -0.92200
C636        C  0.40445114  0.03386104  0.99224524     1.01500
C637        C  0.48619829  0.08819815  0.98686424     1.14500
C638        C  0.45003560  0.98283137  0.91521022     1.05300
O639        O  0.44066022  0.92696914  0.96384023    -0.94400
O640        O  0.49290982  0.91093296  0.98970889    -0.90100
O641        O  0.52339026  0.91947236  0.02240922    -0.83300
C642        C  0.50911868  0.90387418  0.00835395     1.11900
O643        O  0.55332426  0.02615176  0.92912131    -0.96300
Zr644      Zr  0.54605539  0.00067205  0.96870473     1.88900
O645        O  0.57154697  0.95620038  0.02300267    -0.73000
O646        O  0.50637259  0.92434087  0.93605483    -0.52200
O647        O  0.56207436  0.97285374  0.93257795    -0.96900
O648        O  0.58154155  0.03357861  0.97356334    -0.54100
O649        O  0.58467337  0.97595982  0.98522539    -0.73500
C650        C  0.58922836  0.96149731  0.00516265     0.98800
O651        O  0.51468968  0.94068128  0.06970266    -0.62300
O652        O  0.48599622  0.06481239  0.06152906    -0.57100
O653        O  0.54385079  0.98550885  0.06887891    -0.93800
O654        O  0.53148782  0.02861760  0.07058833    -0.92200
O655        O  0.43027138  0.01852410  0.06336778    -0.92600
O656        O  0.43985357  0.96585076  0.06612601    -0.91400
C657        C  0.54302756  0.00800120  0.08029781     1.17700
H658        H  0.45347337  0.04617109  0.01604069     0.33600
H659        H  0.47108664  0.94153267  0.02221036     0.44500
H660        H  0.56011230  0.00901264  0.02277904     0.38000
H661        H  0.50281660  0.99215618  0.93254905     0.34500
H662        H  0.39316702  0.96850043  0.02790028     0.26300
H663        H  0.52204610  0.91671669  0.94581676     0.32200
H664        H  0.58179122  0.97691467  0.93062797     0.38100
H665        H  0.43097640  0.03680326  0.05708424     0.32600
H666        H  0.49899659  0.07867907  0.06666070     0.31500
H667        H  0.55168655  0.07235139  0.04934680     0.33100
H668        H  0.59372289  0.02699930  0.98761591     0.32100
H669        H  0.45668639  0.96878879  0.07650670     0.36100
H670        H  0.50818251  0.95352403  0.08307312     0.28800
H671        H  0.45315850  0.05547914  0.92029835     0.33100
H672        H  0.53615152  0.03648518  0.92705760     0.35900
H673        H  0.47119660  0.07422022  0.05209092     0.28500
H674        H  0.49812784  0.93036146  0.06569991     0.41400
H675        H  0.43985143  0.91646307  0.98007072     0.31500
H676        H  0.40754432  0.95743830  0.00252161     0.39100
H677        H  0.57194829  0.04889343  0.98156249     0.30900
H678        H  0.49384709  0.90945961  0.93320252     0.31000
H679        H  0.48113900  0.04169472  0.91262989     0.31300
Zr680      Zr  0.53693822  0.03343034  0.47286750     2.17500
O681        O  0.58316171  0.03790644  0.45481659    -0.51100
O682        O  0.52202931  0.07712888  0.45911716    -0.74300
O683        O  0.54038525  0.02694262  0.42524479    -0.81100
O684        O  0.56885545  0.04222776  0.54133839    -0.82800
O685        O  0.50800367  0.99810224  0.41214051    -0.78500
O686        O  0.57232919  0.05395117  0.49832387    -0.90100
O687        O  0.48545226  0.08991223  0.48401639    -0.76100
O688        O  0.48980368  0.03419742  0.46188531    -0.85500
O689        O  0.51414441  0.04990932  0.51129347    -0.85200
O690        O  0.52747189  0.98839608  0.46311699    -0.72000
O691        O  0.54813320  0.00428097  0.50844259    -0.84100
Zr692      Zr  0.46587409  0.97663363  0.52479970     2.26400
Zr693      Zr  0.47972033  0.98953404  0.45166189     2.06300
Zr694      Zr  0.52421243  0.02052691  0.54679638     2.10000
Zr695      Zr  0.46680024  0.04989700  0.50049777     1.78800
O696        O  0.55321225  0.99771798  0.57834320    -0.92900
O697        O  0.43449466  0.06539422  0.46748886    -0.40700
O698        O  0.47659073  0.02087945  0.53569893    -0.77400
O699        O  0.45492917  0.00601369  0.48960730    -0.96100
O700        O  0.48940231  0.95972586  0.48705579    -0.89400
O701        O  0.51297231  0.97580043  0.53716228    -0.92200
C702        C  0.50411104  0.09415541  0.46695718     1.01500
C703        C  0.58102500  0.05347750  0.52199077     1.14500
C704        C  0.52879263  0.01285965  0.40753371     1.05300
O705        O  0.45092969  0.01477613  0.42194699    -0.94400
O706        O  0.43502479  0.96835554  0.45487657    -0.90100
O707        O  0.42894612  0.95972572  0.49830023    -0.83300
C708        C  0.42131754  0.95919719  0.47430153     1.11900
O709        O  0.58221433  0.95314954  0.48061406    -0.96300
Zr710      Zr  0.53649928  0.95967729  0.49913707     1.88900
O711        O  0.47629886  0.93155449  0.53582863    -0.73000
O712        O  0.48078659  0.95067073  0.42356352    -0.52200
O713        O  0.53951589  0.92582592  0.46531245    -0.96900
O714        O  0.57256950  0.94837773  0.53025032    -0.54100
O715        O  0.51815851  0.92061780  0.51918420    -0.73500
C716        C  0.49607427  0.91527420  0.53163323     0.98800
O717        O  0.42323881  0.97050191  0.54922779    -0.62300
O718        O  0.52115956  0.06047087  0.57326572    -0.57100
O719        O  0.45904022  0.98828074  0.57074693    -0.93800
O720        O  0.49419736  0.01313894  0.58560550    -0.92200
O721        O  0.46195590  0.07948573  0.53799702    -0.92600
O722        O  0.41950912  0.05240274  0.51605729    -0.91400
C723        C  0.47116537  0.00125229  0.58892743     1.17700
H724        H  0.52017675  0.06735956  0.51558427     0.33600
H725        H  0.43543505  0.00668424  0.48640833     0.44500
H726        H  0.51610198  0.96485197  0.55224471     0.38000
H727        H  0.53866294  0.98211005  0.44869176     0.34500
H728        H  0.44602142  0.07061667  0.45240700     0.26300
H729        H  0.47517140  0.93613366  0.43507810     0.32200
H730        H  0.52223770  0.92760657  0.45531914     0.38100
H731        H  0.45498594  0.09611845  0.53052910     0.32600
H732        H  0.53406367  0.05748129  0.58793350     0.31500
H733        H  0.57130388  0.00624207  0.57728685     0.33100
H734        H  0.56366888  0.93718860  0.54350076     0.32100
H735        H  0.41761123  0.03711615  0.52774954     0.36100
H736        H  0.40920406  0.98139257  0.54028863     0.28800
H737        H  0.58187704  0.05164343  0.44122900     0.33100
H738        H  0.58717058  0.97047837  0.47354934     0.35900
H739        H  0.52986215  0.07421820  0.56258626     0.28500
H740        H  0.41773457  0.95213619  0.54609374     0.41400
H741        H  0.44291330  0.00157528  0.40998654     0.31500
H742        H  0.42510822  0.04942415  0.46127054     0.39100
H743        H  0.57642290  0.96492820  0.53970931     0.30900
H744        H  0.46521281  0.95309706  0.41135626     0.31000
H745        H  0.58722925  0.02141510  0.44509752     0.31300
C746        C  0.49490817  0.25593144  0.38183668    -0.02300
Zr747      Zr  0.96457349  0.47106322  0.02243422     2.17500
O748        O  0.96684485  0.44011301  0.05867041    -0.51100
O749        O  0.91634042  0.46284133  0.01472703    -0.74300
O750        O  0.94636804  0.48889716  0.06358077    -0.81100
O751        O  0.99963430  0.41754488  0.97934896    -0.82800
O752        O  0.95560491  0.53235661  0.06662669    -0.78500
O753        O  0.97041028  0.42474788  0.01376647    -0.90100
O754        O  0.90515574  0.48055189  0.97539164    -0.76100
O755        O  0.94574098  0.51218668  0.00966947    -0.85500
O756        O  0.96137719  0.46781895  0.97573718    -0.85200
O757        O  0.99689088  0.50254351  0.03825376    -0.72000
O758        O  0.01002318  0.46211168  0.00611161    -0.84100
Zr759      Zr  0.01956957  0.53329963  0.96201313     2.26400
Zr760      Zr  0.97811903  0.54412127  0.02467083     2.06300
Zr761      Zr  0.00699150  0.46035767  0.95905553     2.10000
Zr762      Zr  0.94270938  0.50901176  0.96303090     1.78800
O763        O  0.04653786  0.43172607  0.95092021    -0.92900
O764        O  0.90428170  0.53891774  0.97157219    -0.40700
O765        O  0.98802894  0.50153687  0.94574834    -0.77400
O766        O  0.97382928  0.54198506  0.97774759    -0.96100
O767        O  0.02357209  0.53560418  0.00844379    -0.89400
O768        O  0.03889802  0.49221932  0.97418476    -0.92200
C769        C  0.89976837  0.46671340  0.99565126     1.01500
C770        C  0.98461790  0.40968894  0.99853458     1.14500
C771        C  0.94594168  0.51089235  0.07602087     1.05300
O772        O  0.93760462  0.57210437  0.02958257    -0.94400
O773        O  0.98958312  0.58728843  0.00563465    -0.90100
O774        O  0.01760868  0.57960337  0.97043784    -0.83300
C775        C  0.00461651  0.59493909  0.98622697     1.11900
O776        O  0.04841254  0.46891643  0.06064759    -0.96300
Zr777      Zr  0.04193369  0.49406738  0.02066989     1.88900
O778        O  0.06573932  0.54551044  0.97360485    -0.73000
O779        O  0.00373048  0.56738478  0.05839509    -0.52200
O780        O  0.06159733  0.51888792  0.05688056    -0.96900
O781        O  0.07320141  0.45680609  0.01487960    -0.54100
O782        O  0.08175518  0.51637545  0.00354198    -0.73500
C783        C  0.08463244  0.53586382  0.98814257     0.98800
O784        O  0.01328897  0.55884432  0.92205142    -0.62300
O785        O  0.98012869  0.43859775  0.92529205    -0.57100
O786        O  0.04311108  0.51573690  0.92390841    -0.93800
O787        O  0.03034739  0.47342590  0.91793213    -0.92200
O788        O  0.92712472  0.48882141  0.92239164    -0.92600
O789        O  0.93775176  0.53805208  0.92548940    -0.91400
C790        C  0.04267077  0.49438755  0.91051798     1.17700
H791        H  0.94979040  0.45350541  0.97047569     0.33600
H792        H  0.96725930  0.55854789  0.97124774     0.44500
H793        H  0.05676878  0.48929959  0.96635537     0.38000
H794        H  0.99818917  0.50185764  0.05713627     0.34500
H795        H  0.89663133  0.53332076  0.98863730     0.26300
H796        H  0.00943601  0.55364711  0.07092676     0.32200
H797        H  0.08154370  0.51499096  0.05604875     0.38100
H798        H  0.93197675  0.47004014  0.92411793     0.32600
H799        H  0.97882989  0.45148992  0.91091029     0.31500
H800        H  0.06262538  0.44337228  0.95143622     0.33100
H801        H  0.08892904  0.46365359  0.00480401     0.32100
H802        H  0.94321476  0.55562334  0.93174355     0.36100
H803        H  0.00603196  0.54639969  0.90885761     0.28800
H804        H  0.94782785  0.43865902  0.06538352     0.33100
H805        H  0.03127044  0.45889479  0.06258964     0.35900
H806        H  0.99247645  0.42463997  0.91830669     0.28500
H807        H  0.99748545  0.57070080  0.92572247     0.41400
H808        H  0.94328026  0.58608115  0.04193317     0.31500
H809        H  0.91280621  0.55602484  0.97538242     0.39100
H810        H  0.06378957  0.44498922  0.00242611     0.30900
H811        H  0.02099968  0.57255292  0.04964698     0.31000
H812        H  0.97708533  0.44904745  0.07283107     0.31300
Zr813      Zr  0.46369951  0.53098166  0.03015173     2.17500
O814        O  0.42021275  0.54374658  0.05088208    -0.51100
O815        O  0.47416184  0.57658071  0.03886892    -0.74300
O816        O  0.46215876  0.52347815  0.07706758    -0.81100
O817        O  0.42884656  0.54017545  0.96279500    -0.82800
O818        O  0.49473551  0.49396750  0.08943889    -0.78500
O819        O  0.42215218  0.54070170  0.00697710    -0.90100
O820        O  0.51621560  0.58522594  0.02200409    -0.76100
O821        O  0.51107060  0.52890480  0.04072168    -0.85500
O822        O  0.48604683  0.54780287  0.99221713    -0.85200
O823        O  0.47229428  0.48554393  0.03921258    -0.72000
O824        O  0.45097275  0.50345794  0.99408642    -0.84100
Zr825      Zr  0.53145674  0.47163033  0.97519565     2.26400
Zr826      Zr  0.52051507  0.48328817  0.04878241     2.06300
Zr827      Zr  0.47429127  0.51952618  0.95623071     2.10000
Zr828      Zr  0.53352682  0.54489908  0.00242882     1.78800
O829        O  0.44496512  0.49842513  0.92396838    -0.92900
O830        O  0.56856352  0.55697098  0.03415314    -0.40700
O831        O  0.52217663  0.51692580  0.96632873    -0.77400
O832        O  0.54437885  0.49999430  0.01100200    -0.96100
O833        O  0.50832734  0.45503726  0.01272894    -0.89400
O834        O  0.48399407  0.47412042  0.96441169    -0.92200
C835        C  0.49408267  0.59198370  0.03403453     1.01500
C836        C  0.41394579  0.54409265  0.98343232     1.14500
C837        C  0.47421927  0.50945269  0.09439428     1.05300
O838        O  0.55363932  0.50191262  0.07911632    -0.94400
O839        O  0.56365097  0.45822196  0.04356479    -0.90100
O840        O  0.57027107  0.45444566  0.99946138    -0.83300
C841        C  0.57783873  0.45118862  0.02326007     1.11900
O842        O  0.41410859  0.45939117  0.01969974    -0.96300
Zr843      Zr  0.46080260  0.45857023  0.00244224     1.88900
O844        O  0.51917563  0.42664796  0.96439748    -0.73000
O845        O  0.51601626  0.44259026  0.07300567    -0.52200
O846        O  0.45662727  0.42540676  0.03628297    -0.96900
O847        O  0.42479694  0.44579925  0.97197939    -0.54100
O848        O  0.47676673  0.41927703  0.98104027    -0.73500
C849        C  0.49837744  0.41207112  0.96856978     0.98800
O850        O  0.57255508  0.46312224  0.94868494    -0.62300
O851        O  0.47444742  0.56055458  0.93213540    -0.57100
O852        O  0.53515708  0.48163989  0.92884627    -0.93800
O853        O  0.50324086  0.51216270  0.91713494    -0.92200
O854        O  0.53775407  0.57632171  0.96697112    -0.92600
O855        O  0.57960075  0.54614940  0.98375496    -0.91400
C856        C  0.52390290  0.49695989  0.91205572     1.17700
H857        H  0.48022948  0.56554259  0.98838920     0.33600
H858        H  0.56391728  0.49969695  0.01390886     0.44500
H859        H  0.48009435  0.46358307  0.94907323     0.38000
H860        H  0.46132817  0.47953655  0.05375276     0.34500
H861        H  0.57333977  0.57521772  0.02973373     0.26300
H862        H  0.49621428  0.44148731  0.07719797     0.32200
H863        H  0.47374315  0.41482708  0.03490240     0.38100
H864        H  0.54827885  0.59097584  0.97460135     0.32600
H865        H  0.49407727  0.56507003  0.93054310     0.31500
H866        H  0.43387118  0.51286476  0.91640646     0.33100
H867        H  0.42166735  0.42702060  0.97554943     0.32100
H868        H  0.58301660  0.52821935  0.97683195     0.36100
H869        H  0.58739926  0.47346512  0.95680150     0.28800
H870        H  0.42473914  0.55612492  0.06523913     0.33100
H871        H  0.40847580  0.47809326  0.01940482     0.35900
H872        H  0.46890433  0.55568375  0.91407726     0.28500
H873        H  0.57773729  0.44453846  0.95151549     0.41400
H874        H  0.54590103  0.51931066  0.08399862     0.31500
H875        H  0.55869412  0.55848101  0.05113204     0.39100
H876        H  0.43348711  0.44594601  0.95439007     0.30900
H877        H  0.51926725  0.42854780  0.05979493     0.31000
H878        H  0.41334995  0.52786309  0.05969145     0.31300
Zr879      Zr  0.96560423  0.53350929  0.47387448     2.17500
O880        O  0.93455771  0.57142779  0.47428292    -0.51100
O881        O  0.95456197  0.52333587  0.42819785    -0.74300
O882        O  0.98492509  0.57197137  0.45403058    -0.81100
O883        O  0.91113394  0.49708554  0.51271514    -0.82800
O884        O  0.03035265  0.57455069  0.46350017    -0.78500
O885        O  0.91730348  0.52711236  0.48050805    -0.90100
O886        O  0.97891418  0.48710173  0.41595276    -0.76100
O887        O  0.00782081  0.51841346  0.45557648    -0.85500
O888        O  0.96132463  0.48718196  0.47321450    -0.85200
O889        O  0.99997729  0.54973487  0.50343612    -0.72000
O890        O  0.95817656  0.52125412  0.51882549    -0.84100
Zr891      Zr  0.03273498  0.47480567  0.52890382     2.26400
Zr892      Zr  0.04253560  0.53355455  0.48528143     2.06300
Zr893      Zr  0.95546354  0.47453070  0.51818981     2.10000
Zr894      Zr  0.00349583  0.47202656  0.45498781     1.78800
O895        O  0.93072797  0.47063755  0.55957821    -0.92900
O896        O  0.03648803  0.47230592  0.41883037    -0.40700
O897        O  0.99791646  0.45828576  0.49984180    -0.77400
O898        O  0.03911450  0.48673747  0.48366265    -0.96100
O899        O  0.03622850  0.52114648  0.53021424    -0.89400
O900        O  0.99038932  0.48953113  0.54743545    -0.92200
C901        C  0.96198207  0.50593911  0.41114191     1.01500
C902        C  0.90228486  0.51459776  0.49668938     1.14500
C903        C  0.00796577  0.58374307  0.45375317     1.05300
O904        O  0.07050279  0.53728438  0.44581834    -0.94400
O905        O  0.08784847  0.51321130  0.49223028    -0.90100
O906        O  0.08125973  0.47985022  0.52087635    -0.83300
C907        C  0.09648454  0.49395997  0.50627434     1.11900
O908        O  0.96822116  0.57741951  0.55053789    -0.96300
Zr909      Zr  0.99332503  0.53592520  0.54795183     1.88900
O910        O  0.04451821  0.48770955  0.57371630    -0.73000
O911        O  0.06701403  0.56809750  0.50826260    -0.52200
O912        O  0.02195426  0.57108427  0.56454966    -0.96900
O913        O  0.95635724  0.53457734  0.58025683    -0.54100
O914        O  0.01613810  0.52063482  0.58745977    -0.73500
C915        C  0.03535258  0.50376640  0.59129065     0.98800
O916        O  0.06551853  0.43834703  0.53169372    -0.62300
O917        O  0.92600745  0.44214352  0.49769420    -0.57100
O918        O  0.01396788  0.43555872  0.54783146    -0.93800
O919        O  0.96851932  0.43294820  0.53857898    -0.92200
O920        O  0.97285389  0.43639288  0.44362549    -0.92600
O921        O  0.03108802  0.43205978  0.45082918    -0.91400
C922        C  0.99095432  0.42372790  0.54822996     1.17700
H923        H  0.94593378  0.48178568  0.46270323     0.33600
H924        H  0.05574725  0.47882392  0.47676122     0.44500
H925        H  0.98762581  0.48259951  0.56482942     0.38000
H926        H  0.99961092  0.56864967  0.50373586     0.34500
H927        H  0.03436335  0.48982814  0.41083483     0.26300
H928        H  0.07755100  0.55900746  0.52212914     0.32200
H929        H  0.02800664  0.58055598  0.54871101     0.38100
H930        H  0.97766588  0.42209021  0.45585071     0.32600
H931        H  0.93856134  0.42757078  0.49259098     0.31500
H932        H  0.91349763  0.46164844  0.55498135     0.33100
H933        H  0.96545651  0.53650830  0.59749911     0.32100
H934        H  0.03922109  0.42956912  0.46843227     0.36100
H935        H  0.06605244  0.43328944  0.55042622     0.28800
H936        H  0.93300146  0.57710130  0.45578668     0.33100
H937        H  0.95220716  0.57497375  0.53890256     0.35900
H938        H  0.91501333  0.43507503  0.51235322     0.28500
H939        H  0.05706222  0.42338815  0.52240389     0.41400
H940        H  0.07217135  0.51914028  0.43893639     0.31500
H941        H  0.05475292  0.47271594  0.42724650     0.39100
H942        H  0.95001857  0.51624517  0.57988671     0.30900
H943        H  0.08108179  0.57390597  0.49557385     0.31000
H944        H  0.94454048  0.58562846  0.48335218     0.31300
C945        C  0.24105702  0.37490592  0.50356659    -0.02300
Zr946      Zr  0.45864819  0.47709944  0.47729263     2.17500
O947        O  0.41618637  0.46558888  0.45483427    -0.51100
O948        O  0.47097212  0.43205575  0.46575477    -0.74300
O949        O  0.45814794  0.48704727  0.43075279    -0.81100
O950        O  0.42280044  0.46420975  0.54422671    -0.82800
O951        O  0.49119259  0.51592878  0.41974143    -0.78500
O952        O  0.41762885  0.46467681  0.49989776    -0.90100
O953        O  0.51482787  0.42492187  0.47877003    -0.76100
O954        O  0.50615971  0.47994229  0.46754977    -0.85500
O955        O  0.48037408  0.45841048  0.51468125    -0.85200
O956        O  0.46624880  0.52298234  0.47073073    -0.72000
O957        O  0.44463646  0.50308079  0.51454754    -0.84100
Zr958      Zr  0.52405091  0.53328437  0.53566305     2.26400
Zr959      Zr  0.51453253  0.52595192  0.46166330     2.06300
Zr960      Zr  0.46747138  0.48505891  0.55205202     2.10000
Zr961      Zr  0.52791505  0.46178551  0.50528845     1.78800
O962        O  0.43558748  0.50320570  0.58449907    -0.92900
O963        O  0.56673723  0.45156845  0.47654602    -0.40700
O964        O  0.51556016  0.48781831  0.54271574    -0.77400
O965        O  0.53789744  0.50674578  0.49851376    -0.96100
O966        O  0.50133011  0.55214804  0.49904663    -0.89400
O967        O  0.47646264  0.53087033  0.54621454    -0.92200
C968        C  0.49279401  0.41790854  0.46734312     1.01500
C969        C  0.40883513  0.46033608  0.52313266     1.14500
C970        C  0.47069274  0.50121370  0.41398588     1.05300
O971        O  0.54867582  0.51416191  0.42851393    -0.94400
O972        O  0.55822797  0.54879298  0.46914667    -0.90100
O973        O  0.56426386  0.54897151  0.51341141    -0.83300
C974        C  0.57242627  0.55334597  0.48997941     1.11900
O975        O  0.40810702  0.54949251  0.48916462    -0.96300
Zr976      Zr  0.45367107  0.54848456  0.50867155     1.88900
O977        O  0.50852673  0.57639715  0.55025675    -0.73000
O978        O  0.50495590  0.56925802  0.44385083    -0.52200
O979        O  0.45090529  0.58348373  0.47656496    -0.96900
O980        O  0.41724842  0.55869424  0.54025809    -0.54100
O981        O  0.46826562  0.58762512  0.53099110    -0.73500
C982        C  0.48890172  0.59259687  0.54548683     0.98800
O983        O  0.56398064  0.55170959  0.55768696    -0.62300
O984        O  0.46944220  0.44265928  0.57363389    -0.57100
O985        O  0.53209695  0.51507913  0.57885488    -0.93800
O986        O  0.49570181  0.49104839  0.59199447    -0.92200
O987        O  0.52702215  0.42665782  0.53734832    -0.92600
O988        O  0.57182966  0.45783189  0.52764518    -0.91400
C989        C  0.51921436  0.50172393  0.59603587     1.17700
H990        H  0.47498636  0.44047031  0.51726708     0.33600
H991        H  0.55746909  0.50632566  0.49569475     0.44500
H992        H  0.47207648  0.54056974  0.56205632     0.38000
H993        H  0.45548967  0.52964138  0.45625464     0.34500
H994        H  0.57191481  0.43324374  0.48069161     0.26300
H995        H  0.51961424  0.57196587  0.43067695     0.32200
H996        H  0.43833638  0.59671637  0.48454512     0.38100
H997        H  0.53204848  0.41060601  0.52732608     0.32600
H998        H  0.48900803  0.44001633  0.57818338     0.31500
H999        H  0.42214849  0.51341252  0.57408893     0.33100
H1000       H  0.40949365  0.57573486  0.53454758     0.32100
H1001       H  0.56977317  0.46895964  0.54355874     0.36100
H1002       H  0.55692613  0.56015695  0.57396750     0.28800
H1003       H  0.42147480  0.45314728  0.44062669     0.33100
H1004       H  0.40627816  0.53215715  0.48053242     0.35900
H1005       H  0.46010983  0.44565184  0.59071976     0.28500
H1006       H  0.57533439  0.53668088  0.56365980     0.41400
H1007       H  0.56188690  0.50267061  0.43781887     0.31500
H1008       H  0.55879369  0.45055978  0.45870799     0.39100
H1009       H  0.42678392  0.56281920  0.55688012     0.30900
H1010       H  0.48804391  0.56718641  0.43336539     0.31000
H1011       H  0.40966160  0.48162042  0.44583485     0.31300
C1012       C  0.37443595  0.51038524  0.25333652    -0.02300
C1013       C  0.99439429  0.75491277  0.89899028    -0.02300
Zr1014     Zr  0.20774767  0.73192270  0.77904479     2.17500
O1015       O  0.16673780  0.70716248  0.79016453    -0.51100
O1016       O  0.22009078  0.71863465  0.82290564    -0.74300
O1017       O  0.20963943  0.68606930  0.76572082    -0.81100
O1018       O  0.16962748  0.79691805  0.79557489    -0.82800
O1019       O  0.24782224  0.67569762  0.74185630    -0.78500
O1020       O  0.16545793  0.75259171  0.79431462    -0.90100
O1021       O  0.25921260  0.73880861  0.83534704    -0.76100
O1022       O  0.25597369  0.72414149  0.77960691    -0.85500
O1023       O  0.22679051  0.77009458  0.79887877    -0.85200
O1024       O  0.22028310  0.72517301  0.73380106    -0.72000
O1025       O  0.19265488  0.76802119  0.75264334    -0.84100
Zr1026     Zr  0.27382080  0.79163528  0.72635951     2.26400
Zr1027     Zr  0.26943211  0.71809203  0.73450717     2.06300
Zr1028     Zr  0.21288033  0.80629071  0.77211440     2.10000
Zr1029     Zr  0.27513214  0.76277003  0.79804494     1.78800
O1030       O  0.17911044  0.83640478  0.75361552    -0.92900
O1031       O  0.31256382  0.73150947  0.80496271    -0.40700
O1032       O  0.26143102  0.79902228  0.77155026    -0.77400
O1033       O  0.28923647  0.75646617  0.75365427    -0.96100
O1034       O  0.25486099  0.75358945  0.70692958    -0.89400
O1035       O  0.22565779  0.79988467  0.72695330    -0.92200
C1036       C  0.23904744  0.72364074  0.83943712     1.01500
C1037       C  0.15644217  0.77563772  0.80012305     1.14500
C1038       C  0.22511966  0.66975226  0.75314824     1.05300
O1039       O  0.30215847  0.68957308  0.75677225    -0.94400
O1040       O  0.31415452  0.72720907  0.71360702    -0.90100
O1041       O  0.31305549  0.77087860  0.70524623    -0.83300
C1042       C  0.32473437  0.74823003  0.70427783     1.11900
O1043       O  0.16224355  0.74051089  0.70365644    -0.96300
Zr1044     Zr  0.20655838  0.76165914  0.70786020     1.88900
O1045       O  0.26386327  0.80352889  0.68112870    -0.73000
O1046       O  0.27027835  0.69364631  0.69325549    -0.52200
O1047       O  0.20553968  0.72881700  0.67291264    -0.96900
O1048       O  0.16979281  0.79206068  0.69574577    -0.54100
O1049       O  0.22366810  0.78447117  0.66997790    -0.73500
C1050       C  0.24452909  0.79853653  0.66484836     0.98800
O1051       O  0.31587580  0.81669908  0.73118576    -0.62300
O1052       O  0.21235251  0.82905302  0.81429932    -0.57100
O1053       O  0.26997177  0.83814675  0.73224217    -0.93800
O1054       O  0.23858413  0.84730702  0.76435562    -0.92200
O1055       O  0.27952348  0.79015522  0.83709052    -0.92600
O1056       O  0.31678441  0.78835269  0.80176408    -0.91400
C1057       C  0.25763785  0.85397572  0.74805191     1.17700
H1058       H  0.22009260  0.77256739  0.81661635     0.33600
H1059       H  0.30901626  0.75531984  0.75386098     0.44500
H1060       H  0.22122761  0.81528767  0.71686181     0.38000
H1061       H  0.21112555  0.71047532  0.72587293     0.34500
H1062       H  0.32315943  0.73890566  0.81975344     0.26300
H1063       H  0.27405386  0.70689665  0.67966075     0.32200
H1064       H  0.22191815  0.73228322  0.66197925     0.38100
H1065       H  0.26441870  0.80319273  0.83575261     0.32600
H1066       H  0.23133769  0.83528011  0.81664965     0.31500
H1067       H  0.18063360  0.85257286  0.76435781     0.33100
H1068       H  0.16981922  0.79209040  0.67630595     0.32100
H1069       H  0.31670378  0.79966603  0.78607604     0.36100
H1070       H  0.32945919  0.80455713  0.73911036     0.28800
H1071       H  0.17308016  0.69224127  0.80098844     0.33100
H1072       H  0.15891114  0.73256058  0.72103185     0.35900
H1073       H  0.20136098  0.84517677  0.81125037     0.28500
H1074       H  0.32270407  0.81973144  0.71314458     0.41400
H1075       H  0.31481971  0.68321778  0.74280878     0.31500
H1076       H  0.30374086  0.71582847  0.81237922     0.39100
H1077       H  0.17629095  0.80968282  0.70076984     0.30900
H1078       H  0.28725992  0.68282982  0.69402041     0.31000
H1079       H  0.16019723  0.69922742  0.77355936     0.31300
C1080       C  0.49850188  0.75815385  0.62508578    -0.02300
C1081       C  0.39403066  0.73917703  0.68429548     0.30000
C1082       C  0.42069631  0.72786103  0.68247655    -0.36300
C1083       C  0.44049621  0.74245119  0.66855091     0.16000
C1084       C  0.43418898  0.76629816  0.65752780     0.21800
C1085       C  0.40798339  0.77744499  0.65934070    -0.34500
C1086       C  0.38847304  0.76302887  0.67286531     0.15900
O1087       O  0.37206711  0.72960212  0.69634091    -0.26500
C1088       C  0.35248633  0.74773068  0.69220627     0.05700
C1089       C  0.36178598  0.76874059  0.67764435    -0.31400
O1090       O  0.45423981  0.77571716  0.64342305    -0.23200
C1091       C  0.47434585  0.75798327  0.64469337    -0.03200
C1092       C  0.46704317  0.73686967  0.66076654    -0.17600
H1093       H  0.42550993  0.70894158  0.69084014     0.20400
H1094       H  0.40293120  0.79590656  0.65011012     0.18800
H1095       H  0.35058535  0.78625037  0.67199775     0.18700
H1096       H  0.47850911  0.71888307  0.66391176     0.14600
C1097       C  0.05261658  0.77844986  0.86280996     0.30000
C1098       C  0.07489009  0.79506312  0.85736286    -0.36300
C1099       C  0.09400070  0.78591436  0.83839848     0.16000
C1100       C  0.09120838  0.76202696  0.82592438     0.21800
C1101       C  0.06872773  0.74583119  0.83091573    -0.34500
C1102       C  0.04970877  0.75498511  0.84966186     0.15900
O1103       O  0.03358358  0.78198955  0.88115848    -0.26500
C1104       C  0.01824320  0.76042280  0.87989610     0.05700
C1105       C  0.02716427  0.74329761  0.86006026    -0.31400
O1106       O  0.11224107  0.75608765  0.81058909    -0.23200
C1107       C  0.12888651  0.77648555  0.81269092    -0.03200
C1108       C  0.11851117  0.79586133  0.82969677    -0.17600
H1109       H  0.07762162  0.81337612  0.86782199     0.20400
H1110       H  0.06673610  0.72688752  0.82147492     0.18800
H1111       H  0.01898223  0.72430928  0.85499673     0.18700
H1112       H  0.12824871  0.81382260  0.83584433     0.14600
C1113       C  0.48165709  0.65789276  0.56615147     0.30000
C1114       C  0.46999455  0.68319797  0.56763719    -0.36300
C1115       C  0.48289522  0.70073863  0.58485709     0.16000
C1116       C  0.50556551  0.69369204  0.59943408     0.21800
C1117       C  0.51725614  0.66862954  0.59783884    -0.34500
C1118       C  0.50447313  0.65122200  0.58073640     0.15900
O1119       O  0.47287913  0.63810563  0.55179413    -0.26500
C1120       C  0.49041863  0.61872742  0.55735954     0.05700
C1121       C  0.51050589  0.62581914  0.57517528    -0.31400
O1122       O  0.51402132  0.71262765  0.61475104    -0.23200
C1123       C  0.49698012  0.73251538  0.60984967    -0.03200
C1124       C  0.47684640  0.72611242  0.59155285    -0.17600
H1125       H  0.45206835  0.68871680  0.55639047     0.20400
H1126       H  0.53496666  0.66302484  0.60935913     0.18800
H1127       H  0.52705415  0.61391453  0.58298897     0.18700
H1128       H  0.46009536  0.73828312  0.58459794     0.14600
C1129       C  0.44811025  0.51144472  0.34857536     0.30000
C1130       C  0.44528240  0.52416002  0.32419472    -0.36300
C1131       C  0.42395827  0.51531015  0.30775751     0.16000
C1132       C  0.40681554  0.49522970  0.31468101     0.21800
C1133       C  0.40966022  0.48253076  0.33886409    -0.34500
C1134       C  0.43076053  0.49141032  0.35525979     0.15900
O1135       O  0.46552555  0.51730438  0.36775214    -0.26500
C1136       C  0.45917537  0.50065447  0.38690727     0.05700
C1137       C  0.43773933  0.48415667  0.37996273    -0.31400
O1138       O  0.38789346  0.49045786  0.29680704    -0.23200
C1139       C  0.39249429  0.50786496  0.27795088    -0.03200
C1140       C  0.41495426  0.52374622  0.28382946    -0.17600
H1141       H  0.45835547  0.54019998  0.31866182     0.20400
H1142       H  0.39597057  0.46708993  0.34475191     0.18800
H1143       H  0.42786672  0.46954016  0.39190097     0.18700
H1144       H  0.42349637  0.53926968  0.27215674     0.14600
C1145       C  0.30014289  0.41514486  0.50387861     0.30000
C1146       C  0.31807586  0.43351910  0.49351090    -0.36300
C1147       C  0.34095599  0.43936665  0.50884633     0.16000
C1148       C  0.34620634  0.42808544  0.53287693     0.21800
C1149       C  0.32782816  0.40994908  0.54356678    -0.34500
C1150       C  0.30482865  0.40398104  0.52803109     0.15900
O1151       O  0.27796913  0.40628579  0.49227212    -0.26500
C1152       C  0.26801324  0.38891722  0.50902150     0.05700
C1153       C  0.28394449  0.38699080  0.53186130    -0.31400
O1154       O  0.37040444  0.43488981  0.54248463    -0.23200
C1155       C  0.38045843  0.45072519  0.52420151    -0.03200
C1156       C  0.36276957  0.45429665  0.50314239    -0.17600
H1157       H  0.31485647  0.44210489  0.47438960     0.20400
H1158       H  0.33161503  0.40051870  0.56218407     0.18800
H1159       H  0.28065640  0.37516016  0.54907979     0.18700
H1160       H  0.36628593  0.46511605  0.48526771     0.14600
C1161       C  0.15599833  0.45987232  0.48967574     0.30000
C1162       C  0.17048405  0.44123745  0.47435352    -0.36300
C1163       C  0.18971826  0.42558271  0.48770731     0.16000
C1164       C  0.19497678  0.42871379  0.51408999     0.21800
C1165       C  0.18054593  0.44726856  0.52941034    -0.34500
C1166       C  0.16082962  0.46241236  0.51624154     0.15900
O1167       O  0.13436398  0.47363824  0.48209323    -0.26500
C1168       C  0.12515776  0.48513013  0.50403853     0.05700
C1169       C  0.14086654  0.47876337  0.52588510    -0.31400
O1170       O  0.21328424  0.41172797  0.52275482    -0.23200
C1171       C  0.21937109  0.39669017  0.50195827    -0.03200
C1172       C  0.20538198  0.40469619  0.47943147    -0.17600
H1173       H  0.16595204  0.43815259  0.45378696     0.20400
H1174       H  0.18353723  0.44887247  0.55040476     0.18800
H1175       H  0.13628714  0.48304913  0.54630065     0.18700
H1176       H  0.20664075  0.39650758  0.45980035     0.14600
C1177       C  0.44890734  0.50105875  0.15895361     0.30000
C1178       C  0.44348907  0.48794198  0.18263401    -0.36300
C1179       C  0.42352196  0.49958220  0.19925831     0.16000
C1180       C  0.40998125  0.52258727  0.19310177     0.21800
C1181       C  0.41539204  0.53568078  0.16958874    -0.34500
C1182       C  0.43511668  0.52399487  0.15296436     0.15900
O1183       O  0.46560037  0.49309004  0.13974330    -0.26500
C1184       C  0.46233320  0.51122894  0.12124007     0.05700
C1185       C  0.44357058  0.53081144  0.12855572    -0.31400
O1186       O  0.39154140  0.52963169  0.21091875    -0.23200
C1187       C  0.39309868  0.51096947  0.22903034    -0.03200
C1188       C  0.41271371  0.49169298  0.22264482    -0.17600
H1189       H  0.45363315  0.46964579  0.18748404     0.20400
H1190       H  0.40449377  0.55347018  0.16432227     0.18800
H1191       H  0.43635479  0.54723362  0.11704414     0.18700
H1192       H  0.41779445  0.47417085  0.23351379     0.14600
C1193       C  0.01797272  0.65492285  0.95659886     0.30000
C1194       C  0.03003274  0.67059240  0.93728638    -0.36300
C1195       C  0.01647258  0.69428814  0.93184317     0.16000
C1196       C  0.99272269  0.70204235  0.94453544     0.21800
C1197       C  0.98094641  0.68662602  0.96431376    -0.34500
C1198       C  0.99449200  0.66282576  0.96979692     0.15900
O1199       O  0.02540840  0.63078021  0.96231863    -0.26500
C1200       C  0.00672924  0.62295503  0.97965430     0.05700
C1201       C  0.98705851  0.64224060  0.98530891    -0.31400
O1202       O  0.98243799  0.72397403  0.93498466    -0.23200
C1203       C  0.99969653  0.73054647  0.91575193    -0.03200
C1204       C  0.02163330  0.71276315  0.91335166    -0.17600
H1205       H  0.04800857  0.66414722  0.92635971     0.20400
H1206       H  0.96191132  0.69226644  0.97393055     0.18800
H1207       H  0.96862315  0.64046066  0.99703840     0.18700
H1208       H  0.03870090  0.71277604  0.89976144     0.14600
C1209       C  0.47986149  0.35515617  0.44239419     0.30000
C1210       C  0.46432112  0.33324515  0.43519359    -0.36300
C1211       C  0.47916302  0.31201437  0.42424235     0.16000
C1212       C  0.50717500  0.31261943  0.42033910     0.21800
C1213       C  0.52270943  0.33410150  0.42818905    -0.34500
C1214       C  0.50800966  0.35509506  0.43927184     0.15900
O1215       O  0.47038644  0.37755627  0.45215895    -0.26500
C1216       C  0.49289975  0.39168388  0.45553636     0.05700
C1217       C  0.51683243  0.37867691  0.44789309    -0.31400
O1218       O  0.51647377  0.29248471  0.40663222    -0.23200
C1219       C  0.49432426  0.27832439  0.40176051    -0.03200
C1220       C  0.47051485  0.28927259  0.41296660    -0.17600
H1221       H  0.44220745  0.33308814  0.43720488     0.20400
H1222       H  0.54464252  0.33481346  0.42491164     0.18800
H1223       H  0.53769239  0.38571448  0.44845023     0.18700
H1224       H  0.44958213  0.28279539  0.41072015     0.14600
C1225       C  0.50352296  0.85049646  0.55305271     0.30000
C1226       C  0.51674735  0.82610058  0.55636784    -0.36300
C1227       C  0.50566938  0.80991069  0.57579930     0.16000
C1228       C  0.48335277  0.81738718  0.59083221     0.21800
C1229       C  0.46977354  0.84136042  0.58714512    -0.34500
C1230       C  0.48066703  0.85742015  0.56774116     0.15900
O1231       O  0.51163737  0.86965704  0.53772481    -0.26500
C1232       C  0.49354647  0.88888698  0.54257368     0.05700
C1233       C  0.47366237  0.88223754  0.56088090    -0.31400
O1234       O  0.47767060  0.80042574  0.60918145    -0.23200
C1235       C  0.49626178  0.78132170  0.60613276    -0.03200
C1236       C  0.51414098  0.78618930  0.58519677    -0.17600
H1237       H  0.53493160  0.82056427  0.54528911     0.20400
H1238       H  0.45250169  0.84746089  0.59924616     0.18800
H1239       H  0.45738481  0.89445535  0.56904722     0.18700
H1240       H  0.53139765  0.77447762  0.57837163     0.14600
C1241       C  0.49252807  0.20141654  0.42501214     0.30000
C1242       C  0.49039549  0.18831576  0.44904812    -0.36300
C1243       C  0.49630460  0.16133000  0.44831791     0.16000
C1244       C  0.50420748  0.14826377  0.42562129     0.21800
C1245       C  0.50564744  0.16120058  0.40155723    -0.34500
C1246       C  0.49925500  0.18799353  0.40221881     0.15900
O1247       O  0.48938817  0.22684143  0.42123346    -0.26500
C1248       C  0.49376875  0.22962728  0.39556380     0.05700
C1249       C  0.49947233  0.20591144  0.38277981    -0.31400
O1250       O  0.50915302  0.12316580  0.42942337    -0.23200
C1251       C  0.50402640  0.12001248  0.45481621    -0.03200
C1252       C  0.49572866  0.14300488  0.46756298    -0.17600
H1253       H  0.48477937  0.19845841  0.46705489     0.20400
H1254       H  0.51147167  0.15110258  0.38358118     0.18800
H1255       H  0.50457381  0.20269888  0.36229102     0.18700
H1256       H  0.48981528  0.14567796  0.48792589     0.14600
C1257       C  0.30165125  0.09446182  0.00793552     0.30000
C1258       C  0.31070094  0.06824831  0.00821109    -0.36300
C1259       C  0.33841603  0.06394083  0.00175627     0.16000
C1260       C  0.35581289  0.08404723  0.99524271     0.21800
C1261       C  0.34702579  0.11021778  0.99583408    -0.34500
C1262       C  0.31951116  0.11449303  0.00257349     0.15900
O1263       O  0.27620420  0.10292997  0.01136216    -0.26500
C1264       C  0.27784668  0.12878696  0.00834448     0.05700
C1265       C  0.30458991  0.13700405  0.00355658    -0.31400
O1266       O  0.38075847  0.07571826  0.98957855    -0.23200
C1267       C  0.37953494  0.04998143  0.99284492    -0.03200
C1268       C  0.35376898  0.04145703  0.00058102    -0.17600
H1269       H  0.29702489  0.05233948  0.01269690     0.20400
H1270       H  0.36062227  0.12611499  0.99106301     0.18800
H1271       H  0.31161498  0.15667055  0.99981780     0.18700
H1272       H  0.34752832  0.02174691  0.00521975     0.14600
C1273       C  0.07236895  0.01805638  0.29812040     0.30000
C1274       C  0.04988907  0.02931499  0.31205241    -0.36300
C1275       C  0.04325526  0.01773716  0.33639309     0.16000
C1276       C  0.05782094  0.99658155  0.34600616     0.21800
C1277       C  0.07994116  0.98538863  0.33216868    -0.34500
C1278       C  0.08651502  0.99693246  0.30818400     0.15900
O1279       O  0.08310565  0.02610632  0.27558788    -0.26500
C1280       C  0.10439494  0.00976904  0.27117095     0.05700
C1281       C  0.10730246  0.99138886  0.29121072    -0.31400
O1282       O  0.04972707  0.98964603  0.36956506    -0.23200
C1283       C  0.02950967  0.00638023  0.37564558    -0.03200
C1284       C  0.02435872  0.02436223  0.35560898    -0.17600
H1285       H  0.03881720  0.04624342  0.30476742     0.20400
H1286       H  0.09175057  0.96914235  0.33996545     0.18800
H1287       H  0.12300263  0.97644424  0.29362846     0.18700
H1288       H  0.00989572  0.04061933  0.35573194     0.14600
C1289       C  0.30713493  0.41235670  0.25394155     0.30000
C1290       C  0.31211025  0.43431789  0.27001608    -0.36300
C1291       C  0.32810846  0.45414878  0.25898014     0.16000
C1292       C  0.33868312  0.45231625  0.23391716     0.21800
C1293       C  0.33311627  0.43062581  0.21755056    -0.34500
C1294       C  0.31694073  0.41082702  0.22853641     0.15900
O1295       O  0.29430541  0.39094265  0.26105635    -0.26500
C1296       C  0.29548838  0.37541309  0.23992380     0.05700
C1297       C  0.30917862  0.38686349  0.21890320    -0.31400
O1298       O  0.35523787  0.47183128  0.22845120    -0.23200
C1299       C  0.35543060  0.48665011  0.25024299    -0.03200
C1300       C  0.33818127  0.47673843  0.26968058    -0.17600
H1301       H  0.30479125  0.43542967  0.29008509     0.20400
H1302       H  0.34162564  0.42889353  0.19794698     0.18800
H1303       H  0.31379441  0.37834608  0.19983987     0.18700
H1304       H  0.33482452  0.48424627  0.28937350     0.14600
C1305       C  0.23042218  0.33153003  0.44905118     0.30000
C1306       C  0.21535165  0.31475027  0.43252806    -0.36300
C1307       C  0.22957896  0.30389644  0.41079955     0.16000
C1308       C  0.25674947  0.30930376  0.40579561     0.21800
C1309       C  0.27189668  0.32560921  0.42255648    -0.34500
C1310       C  0.25764537  0.33653457  0.44408057     0.15900
O1311       O  0.22103207  0.34449459  0.46989168    -0.26500
C1312       C  0.24247022  0.35822686  0.47841247     0.05700
C1313       C  0.26586811  0.35379380  0.46296580    -0.31400
O1314       O  0.26520606  0.29978885  0.38297460    -0.23200
C1315       C  0.24340975  0.28767610  0.37314653    -0.03200
C1316       C  0.22063254  0.28938243  0.38977921    -0.17600
H1317       H  0.19379925  0.31111460  0.43588877     0.20400
H1318       H  0.29306956  0.33032962  0.41847062     0.18800
H1319       H  0.28616055  0.36180231  0.46536431     0.18700
H1320       H  0.19990499  0.28316365  0.38578361     0.14600
C1321       C  0.43448227  0.24853700  0.34421217     0.30000
C1322       C  0.41166627  0.23506305  0.33504242    -0.36300
C1323       C  0.39156831  0.25031797  0.32283751     0.16000
C1324       C  0.39344585  0.27711217  0.31996140     0.21800
C1325       C  0.41679056  0.29056325  0.32855776    -0.34500
C1326       C  0.43720147  0.27513783  0.34056518     0.15900
O1327       O  0.45442796  0.23831219  0.35815721    -0.26500
C1328       C  0.47061805  0.25842669  0.36340091     0.05700
C1329       C  0.46118522  0.28183099  0.35235743    -0.31400
O1330       O  0.37136771  0.28743044  0.30888192    -0.23200
C1331       C  0.35558948  0.26676908  0.30441709    -0.03200
C1332       C  0.36719898  0.24327734  0.31261266    -0.17600
H1333       H  0.40939792  0.21420616  0.33787729     0.20400
H1334       H  0.41864336  0.31155830  0.32655988     0.18800
H1335       H  0.46974000  0.30119990  0.35444934     0.18700
H1336       H  0.35866978  0.22381601  0.31145439     0.14600
C1337       C  0.17241600  0.11900715  0.26997424     0.30000
C1338       C  0.17313085  0.09342715  0.28061736    -0.36300
C1339       C  0.15897091  0.07380665  0.26646187     0.16000
C1340       C  0.14528905  0.07918726  0.24350217     0.21800
C1341       C  0.14458746  0.10447864  0.23292939    -0.34500
C1342       C  0.15852056  0.12388990  0.24697929     0.15900
O1343       O  0.18441054  0.14038489  0.27944848    -0.26500
C1344       C  0.17792370  0.15910111  0.26219915     0.05700
C1345       C  0.16188433  0.14971910  0.24168209    -0.31400
O1346       O  0.13273637  0.05862343  0.23372907    -0.23200
C1347       C  0.13823713  0.03911423  0.25025420    -0.03200
C1348       C  0.15453271  0.04763763  0.27124550    -0.17600
H1349       H  0.18387759  0.08914099  0.29865572     0.20400
H1350       H  0.13370477  0.10877784  0.21495483     0.18800
H1351       H  0.15432624  0.16035772  0.22482625     0.18700
H1352       H  0.16121468  0.03641395  0.28803165     0.14600
C1353       C  0.26171431  0.21253661  0.10580459     0.30000
C1354       C  0.27670459  0.19321147  0.09212438    -0.36300
C1355       C  0.26552461  0.18501310  0.06821087     0.16000
C1356       C  0.24137317  0.19512693  0.05832757     0.21800
C1357       C  0.22625069  0.21435566  0.07209554    -0.34500
C1358       C  0.23736304  0.22253871  0.09609083     0.15900
O1359       O  0.26746490  0.22179773  0.12929958    -0.26500
C1360       C  0.24670845  0.23813243  0.13456071     0.05700
C1361       C  0.22717505  0.23917729  0.11481701    -0.31400
O1362       O  0.23423871  0.18382474  0.03608741    -0.23200
C1363       C  0.25396664  0.16601611  0.03162738    -0.03200
C1364       C  0.27400422  0.16602207  0.05118883    -0.17600
H1365       H  0.29537351  0.18465959  0.09991837     0.20400
H1366       H  0.20685550  0.22190735  0.06493007     0.18800
H1367       H  0.20764093  0.24950316  0.11495377     0.18700
H1368       H  0.29182853  0.15338472  0.05325582     0.14600
C1369       C  0.99790175  0.84820830  0.97080703     0.30000
C1370       C  0.01342387  0.82558032  0.96470157    -0.36300
C1371       C  0.00132262  0.80775460  0.94718686     0.16000
C1372       C  0.97560253  0.81169290  0.93659023     0.21800
C1373       C  0.95986531  0.83400645  0.94309829    -0.34500
C1374       C  0.97208176  0.85196585  0.96032440     0.15900
O1375       O  0.00663801  0.86903729  0.98380638    -0.26500
C1376       C  0.98612129  0.88633542  0.98158960     0.05700
C1377       C  0.96407746  0.87662361  0.96732409    -0.31400
O1378       O  0.96929997  0.79376247  0.91884606    -0.23200
C1379       C  0.99132125  0.77804736  0.91790490    -0.03200
C1380       C  0.01174228  0.78576233  0.93540733    -0.17600
H1381       H  0.03412967  0.82280943  0.97185451     0.20400
H1382       H  0.94011944  0.83784271  0.93416756     0.18800
H1383       H  0.94584056  0.88710585  0.96100844     0.18700
H1384       H  0.03185965  0.77698817  0.93809347     0.14600
C1385       C  0.19759350  0.10426212  0.99559330     0.30000
C1386       C  0.18257609  0.08615386  0.98075852    -0.36300
C1387       C  0.15835489  0.07708369  0.99237254     0.16000
C1388       C  0.14944015  0.08540018  0.01683237     0.21800
C1389       C  0.16452140  0.10348053  0.03168054    -0.34500
C1390       C  0.18877027  0.11249673  0.02007524     0.15900
O1391       O  0.22079883  0.11519351  0.98851686    -0.26500
C1392       C  0.22705889  0.13083492  0.00864926     0.05700
C1393       C  0.20772363  0.12982649  0.02893608    -0.31400
O1394       O  0.12576192  0.07504772  0.02354437    -0.23200
C1395       C  0.11945517  0.05972611  0.00320832    -0.03200
C1396       C  0.13907775  0.06018389  0.98325205    -0.17600
H1397       H  0.18925214  0.07969419  0.96145177     0.20400
H1398       H  0.15770954  0.11020321  0.05085517     0.18800
H1399       H  0.20766378  0.14007826  0.04760861     0.18700
H1400       H  0.13874787  0.05016274  0.96444993     0.14600
C1401       C  0.06950013  0.99028942  0.14373101     0.30000
C1402       C  0.06903711  0.98090018  0.16978627    -0.36300
C1403       C  0.08520699  0.99460524  0.18821289     0.16000
C1404       C  0.10094200  0.01568018  0.18125614     0.21800
C1405       C  0.10143323  0.02498020  0.15546164    -0.34500
C1406       C  0.08513324  0.01164647  0.13728613     0.15900
O1407       O  0.05523339  0.98141779  0.12338539    -0.26500
C1408       C  0.06186812  0.99750761  0.10382224     0.05700
C1409       C  0.08038413  0.01658748  0.11153803    -0.31400
O1410       O  0.11522534  0.02513601  0.20097721    -0.23200
C1411       C  0.10848402  0.01052165  0.22153891    -0.03200
C1412       C  0.08980779  0.99096530  0.21452240    -0.17600
H1413       H  0.05676641  0.96430148  0.17535041     0.20400
H1414       H  0.11362493  0.04165868  0.14995500     0.18800
H1415       H  0.08854276  0.03241196  0.09995463     0.18700
H1416       H  0.08172177  0.97565368  0.22680696     0.14600
C1417       C  0.97666454  0.31023200  0.05385200     0.30000
C1418       C  0.95942704  0.33011298  0.04444745    -0.36300
C1419       C  0.97125867  0.34747075  0.02669905     0.16000
C1420       C  0.99814801  0.34528651  0.01824659     0.21800
C1421       C  0.01522883  0.32474981  0.02710956    -0.34500
C1422       C  0.00348810  0.30763392  0.04542514     0.15900
O1423       O  0.97045478  0.29373726  0.07258995    -0.26500
C1424       C  0.99363328  0.28040270  0.07677214     0.05700
C1425       C  0.01481143  0.28793460  0.05998857    -0.31400
O1426       O  0.00600199  0.36605701  0.00486139    -0.23200
C1427       C  0.98381500  0.38160958  0.00487851    -0.03200
C1428       C  0.96162006  0.37081818  0.01795315    -0.17600
H1429       H  0.93875360  0.33294676  0.05187913     0.20400
H1430       H  0.03666560  0.32333519  0.02159863     0.18800
H1431       H  0.03569328  0.28049450  0.05930684     0.18700
H1432       H  0.94213217  0.38012664  0.02275289     0.14600
C1433       C  0.05531408  0.25200360  0.13663347     0.30000
C1434       C  0.07717421  0.23825031  0.14791041    -0.36300
C1435       C  0.09256173  0.25204504  0.16633661     0.16000
C1436       C  0.08708658  0.27775792  0.17330715     0.21800
C1437       C  0.06483864  0.29155547  0.16210092    -0.34500
C1438       C  0.04926600  0.27759309  0.14352192     0.15900
O1439       O  0.03830847  0.24246546  0.11920556    -0.26500
C1440       C  0.02078960  0.26200072  0.11439543     0.05700
C1441       C  0.02661859  0.28446898  0.12919776    -0.31400
O1442       O  0.10531233  0.28699035  0.19013212    -0.23200
C1443       C  0.12245571  0.26676580  0.19382181    -0.03200
C1444       C  0.11528146  0.24456116  0.17963318    -0.17600
H1445       H  0.08198594  0.21815596  0.14251559     0.20400
H1446       H  0.06018917  0.31173305  0.16726913     0.18800
H1447       H  0.01546297  0.30292597  0.12965414     0.18700
H1448       H  0.12592328  0.22583512  0.17852370     0.14600
C1449       C  0.01409868  0.19933412  0.06290579     0.30000
C1450       C  0.03137087  0.17836420  0.05573835    -0.36300
C1451       C  0.02095186  0.16092139  0.03705757     0.16000
C1452       C  0.99525068  0.16372638  0.02607819     0.21800
C1453       C  0.97802684  0.18501684  0.03311287    -0.34500
C1454       C  0.98846306  0.20250466  0.05198814     0.15900
O1455       O  0.01976724  0.21764615  0.08026696    -0.26500
C1456       C  0.99748903  0.23299630  0.08089576     0.05700
C1457       C  0.97727139  0.22440688  0.06354959    -0.31400
O1458       O  0.98863855  0.14339916  0.01116968    -0.23200
C1459       C  0.01048194  0.12751460  0.01264166    -0.03200
C1460       C  0.03123636  0.13767221  0.02828608    -0.17600
H1461       H  0.05128180  0.17544451  0.06467606     0.20400
H1462       H  0.95760349  0.18728994  0.02512805     0.18800
H1463       H  0.95747002  0.23338155  0.05972396     0.18700
H1464       H  0.05014108  0.12813876  0.03430786     0.14600
C1465       C  0.00665590  0.31870719  0.59507925     0.30000
C1466       C  0.02055405  0.34231934  0.59197321    -0.36300
C1467       C  0.00620867  0.36220189  0.57889415     0.16000
C1468       C  0.98000783  0.35915928  0.56926310     0.21800
C1469       C  0.96623270  0.33526885  0.57197878    -0.34500
C1470       C  0.98064204  0.31529458  0.58515251     0.15900
O1471       O  0.01526906  0.29861707  0.60898098    -0.26500
C1472       C  0.99463507  0.28179381  0.60803891     0.05700
C1473       C  0.97272456  0.29100599  0.59288952    -0.31400
O1474       O  0.97054667  0.38059329  0.55777989    -0.23200
C1475       C  0.99106849  0.39746188  0.56008954    -0.03200
C1476       C  0.01367547  0.38702549  0.57315772    -0.17600
H1477       H  0.04087747  0.34523671  0.59988482     0.20400
H1478       H  0.94556001  0.33262265  0.56483604     0.18800
H1479       H  0.95300738  0.28193952  0.58990209     0.18700
H1480       H  0.03303908  0.39628777  0.57742309     0.14600
C1481       C  0.99884869  0.20340239  0.57980158     0.30000
C1482       C  0.01282336  0.18644388  0.56240696    -0.36300
C1483       C  0.99977153  0.16278174  0.55652988     0.16000
C1484       C  0.97458095  0.15617399  0.56682834     0.21800
C1485       C  0.96036923  0.17342505  0.58389201    -0.34500
C1486       C  0.97356629  0.19707458  0.58993867     0.15900
O1487       O  0.00838146  0.22543321  0.58967013    -0.26500
C1488       C  0.98919693  0.23347544  0.60676757     0.05700
C1489       C  0.96667155  0.21669400  0.60712300    -0.31400
O1490       O  0.96697790  0.13232410  0.55972286    -0.23200
C1491       C  0.98760887  0.12364971  0.54460854    -0.03200
C1492       C  0.00846132  0.14187513  0.54195302    -0.17600
H1493       H  0.03295504  0.19094767  0.55474760     0.20400
H1494       H  0.94086835  0.16837048  0.59259711     0.18800
H1495       H  0.94820144  0.21797382  0.61888923     0.18700
H1496       H  0.02768093  0.13970593  0.53137758     0.14600
C1497       C  0.10828297  0.24054512  0.66505974     0.30000
C1498       C  0.09420611  0.24600580  0.64178716    -0.36300
C1499       C  0.06559191  0.24798142  0.64378131     0.16000
C1500       C  0.05150217  0.24524764  0.66708138     0.21800
C1501       C  0.06563434  0.23944372  0.69049795    -0.34500
C1502       C  0.09444642  0.23698273  0.68843431     0.15900
O1503       O  0.13516863  0.23975813  0.66778855    -0.26500
C1504       C  0.13887590  0.23494700  0.69313940     0.05700
C1505       C  0.11426733  0.23298574  0.70701666    -0.31400
O1506       O  0.02463184  0.24850518  0.66416970    -0.23200
C1507       C  0.02150902  0.25309397  0.63851970    -0.03200
C1508       C  0.04652831  0.25283940  0.62508626    -0.17600
H1509       H  0.10489261  0.24892218  0.62339453     0.20400
H1510       H  0.05499141  0.23727712  0.70902690     0.18800
H1511       H  0.11148697  0.23094351  0.72799003     0.18700
H1512       H  0.05013765  0.25594821  0.60436926     0.14600
C1513       C  0.22699479  0.31903782  0.60430255     0.30000
C1514       C  0.21222453  0.33689419  0.58889630    -0.36300
C1515       C  0.22236657  0.34075008  0.56347634     0.16000
C1516       C  0.24533569  0.32782319  0.55387718     0.21800
C1517       C  0.25986397  0.30965531  0.56912728    -0.34500
C1518       C  0.24989409  0.30596772  0.59463202     0.15900
O1519       O  0.22223128  0.31382738  0.62914867    -0.26500
C1520       C  0.24236088  0.29727160  0.63552866     0.05700
C1521       C  0.26018968  0.29158519  0.61480713    -0.31400
O1522       O  0.25320910  0.33676050  0.53096381    -0.23200
C1523       C  0.23536929  0.35600976  0.52580694    -0.03200
C1524       C  0.21507595  0.35871038  0.54513701    -0.17600
H1525       H  0.19485628  0.34794169  0.59662728     0.20400
H1526       H  0.27846467  0.30012500  0.56207145     0.18800
H1527       H  0.27838017  0.27919824  0.61480754     0.18700
H1528       H  0.19865423  0.37304863  0.54682505     0.14600
C1529       C  0.24224214  0.20682240  0.90806359     0.30000
C1530       C  0.22935971  0.20579925  0.93278848    -0.36300
C1531       C  0.24129734  0.18850265  0.95090023     0.16000
C1532       C  0.26428384  0.17356517  0.94496197     0.21800
C1533       C  0.27722874  0.17476558  0.92050937    -0.34500
C1534       C  0.26530670  0.19180409  0.90247347     0.15900
O1535       O  0.23400341  0.22049885  0.88764129    -0.26500
C1536       C  0.25209927  0.21402336  0.86893540     0.05700
C1537       C  0.27205150  0.19632987  0.87710131    -0.31400
O1538       O  0.27139868  0.15787106  0.96403107    -0.23200
C1539       C  0.25298541  0.16263528  0.98286789    -0.03200
C1540       C  0.23355992  0.18159981  0.97567609    -0.17600
H1541       H  0.21102312  0.21715031  0.93733222     0.20400
H1542       H  0.29499158  0.16271138  0.91566685     0.18800
H1543       H  0.28866997  0.18757224  0.86577236     0.18700
H1544       H  0.21593463  0.18864346  0.98674852     0.14600
C1545       C  0.51138568  0.35089518  0.93916707     0.30000
C1546       C  0.52565248  0.33199227  0.92414930    -0.36300
C1547       C  0.51253643  0.30786209  0.92095131     0.16000
C1548       C  0.48722720  0.30271145  0.93176270     0.21800
C1549       C  0.47306112  0.32147869  0.94691819    -0.34500
C1550       C  0.48609528  0.34555434  0.95005136     0.15900
O1551       O  0.51936950  0.37502692  0.94418863    -0.26500
C1552       C  0.49886903  0.38512179  0.95847487     0.05700
C1553       C  0.47764893  0.36766965  0.96269264    -0.31400
O1554       O  0.47800480  0.27954896  0.92493317    -0.23200
C1555       C  0.49744004  0.26955078  0.90920670    -0.03200
C1556       C  0.51977614  0.28630522  0.90656016    -0.17600
H1557       H  0.54528458  0.33599835  0.91513042     0.20400
H1558       H  0.45298373  0.31778779  0.95515999     0.18800
H1559       H  0.45864007  0.37091618  0.97337561     0.18700
H1560       H  0.53827257  0.28371066  0.89500807     0.14600
C1561       C  0.49545156  0.15361624  0.96869497     0.30000
C1562       C  0.51038827  0.17646505  0.96359462    -0.36300
C1563       C  0.49898099  0.19356375  0.94489731     0.16000
C1564       C  0.47470980  0.18840919  0.93210814     0.21800
C1565       C  0.45964508  0.16597593  0.93750241    -0.34500
C1566       C  0.47092244  0.14904341  0.95610598     0.15900
O1567       O  0.50352845  0.13344477  0.98307400    -0.26500
C1568       C  0.48377392  0.11594527  0.97954432     0.05700
C1569       C  0.46295183  0.12482171  0.96317145    -0.31400
O1570       O  0.46902377  0.20544701  0.91362445    -0.23200
C1571       C  0.48980056  0.22206180  0.91440307    -0.03200
C1572       C  0.50891720  0.21580007  0.93385146    -0.17600
H1573       H  0.53008868  0.18003873  0.97258249     0.20400
H1574       H  0.44105232  0.16138849  0.92695401     0.18800
H1575       H  0.44555257  0.11405860  0.95579253     0.18700
H1576       H  0.52812885  0.22537478  0.93800251     0.14600
C1577       C  0.38397944  0.26710278  0.84564871     0.30000
C1578       C  0.39555965  0.26145804  0.87009981    -0.36300
C1579       C  0.42374348  0.25582947  0.87012097     0.16000
C1580       C  0.43963296  0.25537633  0.84767820     0.21800
C1581       C  0.42797535  0.26093479  0.82304444    -0.34500
C1582       C  0.39968979  0.26701496  0.82304744     0.15900
O1583       O  0.35771472  0.27137227  0.84109035    -0.26500
C1584       C  0.35643099  0.27474737  0.81527619     0.05700
C1585       C  0.38191626  0.27206854  0.80296524    -0.31400
O1586       O  0.46578891  0.25013903  0.85262498    -0.23200
C1587       C  0.46664985  0.24732828  0.87867673    -0.03200
C1588       C  0.44086787  0.25065233  0.89036161    -0.17600
H1589       H  0.38338211  0.26134767  0.88791342     0.20400
H1590       H  0.44007458  0.26060029  0.80518073     0.18800
H1591       H  0.38628646  0.27171364  0.78211343     0.18700
H1592       H  0.43564291  0.25001684  0.91101928     0.14600
C1593       C  0.59228605  0.02023131  0.30694716     0.30000
C1594       C  0.58889365  0.03338494  0.33114929    -0.36300
C1595       C  0.56877787  0.02358693  0.34824851     0.16000
C1596       C  0.55276451  0.00237715  0.34201338     0.21800
C1597       C  0.55614924  0.98921554  0.31763804    -0.34500
C1598       C  0.57652584  0.99894411  0.30055566     0.15900
O1599       O  0.61103522  0.02528465  0.28889596    -0.26500
C1600       C  0.60781496  0.00688442  0.27040050     0.05700
C1601       C  0.58615149  0.99015382  0.27665232    -0.31400
O1602       O  0.53588767  0.99601283  0.36150537    -0.23200
C1603       C  0.54121689  0.01339244  0.38056477    -0.03200
C1604       C  0.56158490  0.03092688  0.37321121    -0.17600
H1605       H  0.60162318  0.04976528  0.33658571     0.20400
H1606       H  0.54423157  0.97216165  0.31261485     0.18800
H1607       H  0.57891184  0.97347289  0.26561289     0.18700
H1608       H  0.57039634  0.04647279  0.38490449     0.14600
C1609       C  0.58025181  0.99712211  0.13827046     0.30000
C1610       C  0.59766623  0.98286077  0.15490942    -0.36300
C1611       C  0.60105152  0.99301282  0.18033219     0.16000
C1612       C  0.58833474  0.01573635  0.18894226     0.21800
C1613       C  0.57123685  0.03040834  0.17203133    -0.34500
C1614       C  0.56775595  0.02018334  0.14643601     0.15900
O1615       O  0.57346400  0.99035610  0.11415404    -0.26500
C1616       C  0.55652995  0.00937837  0.10630796     0.05700
C1617       C  0.55231413  0.02866652  0.12557240    -0.31400
O1618       O  0.59479924  0.02161096  0.21353584    -0.23200
C1619       C  0.61191220  0.00231800  0.22092484    -0.03200
C1620       C  0.61654717  0.98412954  0.20065205    -0.17600
H1621       H  0.60769855  0.96486720  0.14852520     0.20400
H1622       H  0.56126041  0.04842769  0.17841071     0.18800
H1623       H  0.53914364  0.04585833  0.12464579     0.18700
H1624       H  0.63039633  0.96741507  0.20022351     0.14600
C1625       C  0.69063238  0.10341799  0.25253068     0.30000
C1626       C  0.68609461  0.08112304  0.26792796    -0.36300
C1627       C  0.67225899  0.06044549  0.25561729     0.16000
C1628       C  0.66339420  0.06178669  0.23000948     0.21800
C1629       C  0.66874530  0.08368554  0.21433788    -0.34500
C1630       C  0.68262492  0.10431398  0.22660042     0.15900
O1631       O  0.70127850  0.12567901  0.26063796    -0.26500
C1632       C  0.70041201  0.14095767  0.23955822     0.05700
C1633       C  0.68918191  0.12862077  0.21771691    -0.31400
O1634       O  0.64799460  0.04179492  0.22341937    -0.23200
C1635       C  0.64677808  0.02715521  0.24501755    -0.03200
C1636       C  0.66238143  0.03757338  0.26546451    -0.17600
H1637       H  0.69188430  0.08041241  0.28840200     0.20400
H1638       H  0.66146106  0.08503672  0.19434188     0.18800
H1639       H  0.68546200  0.13672262  0.19846217     0.18700
H1640       H  0.66442624  0.03035205  0.28528674     0.14600
C1641       C  0.54870048  0.25696140  0.33429465     0.30000
C1642       C  0.56059783  0.25922557  0.30926430    -0.36300
C1643       C  0.58875859  0.25326321  0.30753318     0.16000
C1644       C  0.60391978  0.24498908  0.32882854     0.21800
C1645       C  0.59209749  0.24297246  0.35382232    -0.34500
C1646       C  0.56421180  0.24962776  0.35566421     0.15900
O1647       O  0.52264745  0.26101185  0.34041216    -0.26500
C1648       C  0.52154028  0.25658636  0.36616162     0.05700
C1649       C  0.54701921  0.24983421  0.37666411    -0.31400
O1650       O  0.62998072  0.24097679  0.32301517    -0.23200
C1651       C  0.63172618  0.24714696  0.29776775    -0.03200
C1652       C  0.60673548  0.25496488  0.28704716    -0.17600
H1653       H  0.54881028  0.26544708  0.29241370     0.20400
H1654       H  0.60393063  0.23701648  0.37074316     0.18800
H1655       H  0.55174440  0.24448860  0.39668355     0.18700
H1656       H  0.60262680  0.26157538  0.26729423     0.14600
C1657       C  0.94190595  0.24453974  0.14227673     0.30000
C1658       C  0.92538195  0.22892651  0.15841028    -0.36300
C1659       C  0.90523027  0.24230322  0.17338110     0.16000
C1660       C  0.90146971  0.26912266  0.17232552     0.21800
C1661       C  0.91850516  0.28472191  0.15687625    -0.34500
C1662       C  0.93866688  0.27138742  0.14211058     0.15900
O1663       O  0.96149989  0.23626923  0.12605750    -0.26500
C1664       C  0.97083959  0.25814936  0.11513956     0.05700
C1665       C  0.95774244  0.28059177  0.12518333    -0.31400
O1666       O  0.87992600  0.27736483  0.18596513    -0.23200
C1667       C  0.86992725  0.25563019  0.19635415    -0.03200
C1668       C  0.88502447  0.23322842  0.18941915    -0.17600
H1669       H  0.92765502  0.20781701  0.15882139     0.20400
H1670       H  0.91575022  0.30576072  0.15587566     0.18800
H1671       H  0.96181843  0.30090259  0.12089066     0.18700
H1672       H  0.88066706  0.21306132  0.19414789     0.14600
C1673       C  0.90382387  0.51933544  0.30905038     0.30000
C1674       C  0.90575647  0.53137989  0.33388396    -0.36300
C1675       C  0.92457343  0.52012576  0.35147228     0.16000
C1676       C  0.94046705  0.49843137  0.34515159     0.21800
C1677       C  0.93859992  0.48641803  0.32018398    -0.34500
C1678       C  0.91974838  0.49775102  0.30252618     0.15900
O1679       O  0.88613441  0.52557973  0.29048094    -0.26500
C1680       C  0.89038526  0.50773835  0.27155156     0.05700
C1681       C  0.91155213  0.49015578  0.27795420    -0.31400
O1682       O  0.95596871  0.49063508  0.36502606    -0.23200
C1683       C  0.94996264  0.50761206  0.38436387    -0.03200
C1684       C  0.93054841  0.52639141  0.37690500    -0.17600
H1685       H  0.89290116  0.54799064  0.33937182     0.20400
H1686       H  0.95053472  0.46908217  0.31509447     0.18800
H1687       H  0.91843210  0.47311831  0.26686596     0.18700
H1688       H  0.92170890  0.54210124  0.38870587     0.14600
C1689       C  0.92469400  0.52084393  0.14236645     0.30000
C1690       C  0.92096795  0.53414775  0.16659281    -0.36300
C1691       C  0.90901935  0.51972478  0.18719457     0.16000
C1692       C  0.90119697  0.49404183  0.18411176     0.21800
C1693       C  0.90523239  0.48068352  0.16012347    -0.34500
C1694       C  0.91706514  0.49505813  0.13961836     0.15900
O1695       O  0.93526977  0.53043756  0.12036076    -0.26500
C1696       C  0.93435924  0.51045563  0.10325756     0.05700
C1697       C  0.92314677  0.48804601  0.11435597    -0.31400
O1698       O  0.88845975  0.48486674  0.20503612    -0.23200
C1699       C  0.88782519  0.50485670  0.22211098    -0.03200
C1700       C  0.90099488  0.52692108  0.21210656    -0.17600
H1701       H  0.92653926  0.55446578  0.16908561     0.20400
H1702       H  0.89894721  0.46058283  0.15742450     0.18800
H1703       H  0.92026509  0.46907998  0.10518250     0.18700
H1704       H  0.90248557  0.54608937  0.22117680     0.14600
C1705       C  0.81498666  0.40050436  0.24568329     0.30000
C1706       C  0.81764789  0.42307018  0.23033172    -0.36300
C1707       C  0.83202156  0.44386580  0.24171463     0.16000
C1708       C  0.84336662  0.44248506  0.26640109     0.21800
C1709       C  0.83995377  0.42016725  0.28216807    -0.34500
C1710       C  0.82528297  0.39935557  0.27084336     0.15900
O1711       O  0.80352945  0.37841338  0.23822446    -0.26500
C1712       C  0.80601959  0.36280598  0.25893132     0.05700
C1713       C  0.81921474  0.37488512  0.27998132    -0.31400
O1714       O  0.85806274  0.46333632  0.27214031    -0.23200
C1715       C  0.85608641  0.47842614  0.25086163    -0.03200
C1716       C  0.83939711  0.46741634  0.23162837    -0.17600
H1717       H  0.80969753  0.42406605  0.21055211     0.20400
H1718       H  0.84878284  0.41883916  0.30158244     0.18800
H1719       H  0.82427778  0.36660419  0.29887438     0.18700
H1720       H  0.83455935  0.47513224  0.21244090     0.14600
C1721       C  0.23921563  0.84172040  0.55702398     0.30000
C1722       C  0.22568128  0.82334027  0.57272721    -0.36300
C1723       C  0.23596955  0.82014548  0.59830603     0.16000
C1724       C  0.25790831  0.83414489  0.60782856     0.21800
C1725       C  0.27109770  0.85268557  0.59233808    -0.34500
C1726       C  0.26095879  0.85568486  0.56683836     0.15900
O1727       O  0.23337857  0.84791971  0.53242343    -0.26500
C1728       C  0.25198366  0.86586808  0.52625950     0.05700
C1729       C  0.26923962  0.87161319  0.54739512    -0.31400
O1730       O  0.26417683  0.82815029  0.63222880    -0.23200
C1731       C  0.24596120  0.81009020  0.63855564    -0.03200
C1732       C  0.22787958  0.80433364  0.61822672    -0.17600
H1733       H  0.20845467  0.81225189  0.56552022     0.20400
H1734       H  0.28820003  0.86391925  0.59961164     0.18800
H1735       H  0.28526701  0.88603691  0.54871844     0.18700
H1736       H  0.21109505  0.79064182  0.61824571     0.14600
C1737       C  0.18730849  0.91164700  0.49089974     0.30000
C1738       C  0.16135185  0.91353930  0.47941630    -0.36300
C1739       C  0.14096094  0.92621209  0.49438887     0.16000
C1740       C  0.14553452  0.93687404  0.51891383     0.21800
C1741       C  0.17183581  0.93521839  0.53036887    -0.34500
C1742       C  0.19237260  0.92215507  0.51539074     0.15900
O1743       O  0.20818826  0.89791639  0.48143933    -0.26500
C1744       C  0.22722386  0.89910364  0.50005710     0.05700
C1745       C  0.21868281  0.91471015  0.52140566    -0.31400
O1746       O  0.12316290  0.94840999  0.52893578    -0.23200
C1747       C  0.10413579  0.94479176  0.51048118    -0.03200
C1748       C  0.11427630  0.93095926  0.48876504    -0.17600
H1749       H  0.15709888  0.90493383  0.46039351     0.20400
H1750       H  0.17586642  0.94302315  0.54976562     0.18800
H1751       H  0.22925824  0.91778247  0.53979428     0.18700
H1752       H  0.10371793  0.92612786  0.47072723     0.14600
C1753       C  0.30832192  0.92345082  0.48704923     0.30000
C1754       C  0.32195681  0.94617889  0.47883911    -0.36300
C1755       C  0.35050752  0.94350449  0.47470242     0.16000
C1756       C  0.36445217  0.92013524  0.47846737     0.21800
C1757       C  0.35100064  0.89774183  0.48683747    -0.34500
C1758       C  0.32282637  0.90048670  0.49110649     0.15900
O1759       O  0.28156202  0.92067879  0.49094326    -0.26500
C1760       C  0.27921530  0.89558609  0.49776096     0.05700
C1761       C  0.30450151  0.88248636  0.49856685    -0.31400
O1762       O  0.39114843  0.92226401  0.47587733    -0.23200
C1763       C  0.39471301  0.94721384  0.46987924    -0.03200
C1764       C  0.37015003  0.96150990  0.46899824    -0.17600
H1765       H  0.31117463  0.96459793  0.47604101     0.20400
H1766       H  0.36188511  0.87947917  0.49026257     0.18800
H1767       H  0.30842307  0.86194735  0.50243098     0.18700
H1768       H  0.36747686  0.98250660  0.46724699     0.14600
C1769       C  0.23756000  0.82327929  0.39781654     0.30000
C1770       C  0.22257461  0.82783822  0.42126130    -0.36300
C1771       C  0.23710972  0.83946991  0.44216103     0.16000
C1772       C  0.26416620  0.84645891  0.43966969     0.21800
C1773       C  0.27923667  0.84133466  0.41673721    -0.34500
C1774       C  0.26496904  0.82950634  0.39619440     0.15900
O1775       O  0.22830918  0.81310662  0.37555426    -0.26500
C1776       C  0.25031919  0.81260520  0.35984161     0.05700
C1777       C  0.27360623  0.82250719  0.37175702    -0.31400
O1778       O  0.27297707  0.85992415  0.45987720    -0.23200
C1779       C  0.25165566  0.86176977  0.47631974    -0.03200
C1780       C  0.22883436  0.84841734  0.46649277    -0.17600
H1781       H  0.20102858  0.82322575  0.42288187     0.20400
H1782       H  0.30048778  0.84695714  0.41477599     0.18800
H1783       H  0.29399036  0.82433049  0.36348935     0.18700
H1784       H  0.20844487  0.84753901  0.47489686     0.14600
C1785       C  0.32101862  0.61718916  0.25209039     0.30000
C1786       C  0.34705594  0.60519769  0.25189793    -0.36300
C1787       C  0.34775893  0.57792160  0.25473142     0.16000
C1788       C  0.32448950  0.56309434  0.25710115     0.21800
C1789       C  0.29822554  0.57526919  0.25805215    -0.34500
C1790       C  0.29749044  0.60288172  0.25562474     0.15900
O1791       O  0.31597958  0.64233867  0.24861882    -0.26500
C1792       C  0.28880621  0.64474624  0.25037414     0.05700
C1793       C  0.27609575  0.62078349  0.25499391    -0.31400
O1794       O  0.33021389  0.53755320  0.25732414    -0.23200
C1795       C  0.35763030  0.53608872  0.25536415    -0.03200
C1796       C  0.36936593  0.56086616  0.25414599    -0.17600
H1797       H  0.36556588  0.61637545  0.24917595     0.20400
H1798       H  0.27968062  0.56399770  0.25998912     0.18800
H1799       H  0.25437262  0.61701817  0.25680175     0.18700
H1800       H  0.39074532  0.56567948  0.25160517     0.14600
C1801       C  0.15460551  0.94850638  0.24425275     0.30000
C1802       C  0.15313802  0.92123583  0.24231539    -0.36300
C1803       C  0.17812542  0.90761101  0.24098209     0.16000
C1804       C  0.20323509  0.91973082  0.24153124     0.21800
C1805       C  0.20470015  0.94741760  0.24370863    -0.34500
C1806       C  0.17931959  0.96128407  0.24505077     0.15900
O1807       O  0.13337479  0.96452491  0.24527564    -0.26500
C1808       C  0.14390320  0.98842672  0.24692032     0.05700
C1809       C  0.17271485  0.98764618  0.24691509    -0.31400
O1810       O  0.22397210  0.90246892  0.24078855    -0.23200
C1811       C  0.21161115  0.87919647  0.23983930    -0.03200
C1812       C  0.18318065  0.88147221  0.23989208    -0.17600
H1813       H  0.13367082  0.91125849  0.24193604     0.20400
H1814       H  0.22414711  0.95738672  0.24443772     0.18800
H1815       H  0.18667651  0.00393649  0.24772680     0.18700
H1816       H  0.16828981  0.86590058  0.23999035     0.14600
C1817       C  0.05800655  0.75762334  0.33946537     0.30000
C1818       C  0.07664840  0.77146791  0.32411070    -0.36300
C1819       C  0.10090203  0.75803631  0.31723956     0.16000
C1820       C  0.10653425  0.73253540  0.32448562     0.21800
C1821       C  0.08750418  0.71843212  0.33938020    -0.34500
C1822       C  0.06329622  0.73205776  0.34653919     0.15900
O1823       O  0.03572196  0.76750566  0.35073717    -0.26500
C1824       C  0.02656249  0.74821551  0.36573410     0.05700
C1825       C  0.04262923  0.72533389  0.36298562    -0.31400
O1826       O  0.13145522  0.72458377  0.31722265    -0.23200
C1827       C  0.14178762  0.74544676  0.30533555    -0.03200
C1828       C  0.12355280  0.76664145  0.30474547    -0.17600
H1829       H  0.07315430  0.79178405  0.31903888     0.20400
H1830       H  0.09181866  0.69872195  0.34601858     0.18800
H1831       H  0.04059692  0.70671788  0.37272045     0.18700
H1832       H  0.12681629  0.78596609  0.29679687     0.14600
C1833       C  0.01709325  0.64952571  0.43695343     0.30000
C1834       C  0.02951631  0.67420636  0.43706847    -0.36300
C1835       C  0.01463907  0.69450591  0.42498005     0.16000
C1836       C  0.98957555  0.69062140  0.41318071     0.21800
C1837       C  0.97697115  0.66614163  0.41344197    -0.34500
C1838       C  0.99167938  0.64599554  0.42570088     0.15900
O1839       O  0.02706692  0.62778404  0.44734882    -0.26500
C1840       C  0.00767303  0.61022449  0.44268204     0.05700
C1841       C  0.98524642  0.62052150  0.42926724    -0.31400
O1842       O  0.98102551  0.71115774  0.39995340    -0.23200
C1843       C  0.00082777  0.72862371  0.40308843    -0.03200
C1844       C  0.02180781  0.71957178  0.41944092    -0.17600
H1845       H  0.04958765  0.67724798  0.44549066     0.20400
H1846       H  0.95744403  0.66283097  0.40400125     0.18800
H1847       H  0.96650039  0.61079815  0.42369898     0.18700
H1848       H  0.04111907  0.72892670  0.42367785     0.14600
C1849       C  0.00012207  0.85358791  0.44376852     0.30000
C1850       C  0.98828300  0.82877562  0.44485348    -0.36300
C1851       C  0.00030143  0.80944965  0.42878102     0.16000
C1852       C  0.02238894  0.81419448  0.41256489     0.21800
C1853       C  0.03465680  0.83897754  0.41187261    -0.34500
C1854       C  0.02260863  0.85838698  0.42804652     0.15900
O1855       O  0.99096097  0.87473806  0.45599678    -0.26500
C1856       C  0.00778477  0.89345747  0.44821150     0.05700
C1857       C  0.02805546  0.88444814  0.43087603    -0.31400
O1858       O  0.02790381  0.79427659  0.39667474    -0.23200
C1859       C  0.00906792  0.77653861  0.40273154    -0.03200
C1860       C  0.99179110  0.78482406  0.42310194    -0.17600
H1861       H  0.97018376  0.82510031  0.45657406     0.20400
H1862       H  0.05152803  0.84315061  0.39873548     0.18800
H1863       H  0.04395264  0.89556804  0.42131707     0.18700
H1864       H  0.97374555  0.77515678  0.43054386     0.14600
C1865       C  0.74972144  0.22415610  0.40725709     0.30000
C1866       C  0.76444020  0.21619184  0.42965461    -0.36300
C1867       C  0.75205023  0.19680947  0.44515004     0.16000
C1868       C  0.72712877  0.18591703  0.43889018     0.21800
C1869       C  0.71214653  0.19439522  0.41718265    -0.34500
C1870       C  0.72431692  0.21377196  0.40192900     0.15900
O1871       O  0.75880610  0.23904033  0.38785892    -0.26500
C1872       C  0.73867819  0.23827655  0.37017271     0.05700
C1873       C  0.71670813  0.22310960  0.37827666    -0.31400
O1874       O  0.72061813  0.16619459  0.45411413    -0.23200
C1875       C  0.74144418  0.16431946  0.47078090    -0.03200
C1876       C  0.76142930  0.18327897  0.46635215    -0.17600
H1877       H  0.78472687  0.22345933  0.43388857     0.20400
H1878       H  0.69296255  0.18543716  0.41170624     0.18800
H1879       H  0.69895272  0.21738368  0.36697369     0.18700
H1880       H  0.78074417  0.18565436  0.47646511     0.14600
C1881       C  0.84733877  0.08323351  0.46595264     0.30000
C1882       C  0.82988303  0.10201673  0.45450138    -0.36300
C1883       C  0.80548368  0.10790594  0.46831890     0.16000
C1884       C  0.79861325  0.09614629  0.49165941     0.21800
C1885       C  0.81580440  0.07715278  0.50288054    -0.34500
C1886       C  0.84019183  0.07137660  0.48921847     0.15900
O1887       O  0.87226147  0.07629288  0.45780182    -0.26500
C1888       C  0.88103640  0.05978293  0.47618388     0.05700
C1889       C  0.86182648  0.05600210  0.49603604    -0.31400
O1890       O  0.77594862  0.10602812  0.50225582    -0.23200
C1891       C  0.76806857  0.12471856  0.48568342    -0.03200
C1892       C  0.78558884  0.12620615  0.46385813    -0.17600
H1893       H  0.83543493  0.11212587  0.43668975     0.20400
H1894       H  0.81105614  0.06827228  0.52155351     0.18800
H1895       H  0.86412697  0.04464293  0.51377097     0.18700
H1896       H  0.78460579  0.13940020  0.44737983     0.14600
C1897       C  0.69030765  0.09738253  0.50514908     0.30000
C1898       C  0.67882159  0.07371513  0.51385253    -0.36300
C1899       C  0.65044559  0.07440941  0.51953950     0.16000
C1900       C  0.63463669  0.09678798  0.51660600     0.21800
C1901       C  0.64606441  0.12023903  0.50801343    -0.34500
C1902       C  0.67418512  0.11952030  0.50241106     0.15900
O1903       O  0.71651016  0.10184619  0.49991376    -0.26500
C1904       C  0.71710499  0.12721098  0.49346859     0.05700
C1905       C  0.69108095  0.13892884  0.49480250    -0.31400
O1906       O  0.60828451  0.09268498  0.52019917    -0.23200
C1907       C  0.60683131  0.06742318  0.52608809    -0.03200
C1908       C  0.63251533  0.05499634  0.52598846    -0.17600
H1909       H  0.69105831  0.05601666  0.51588349     0.20400
H1910       H  0.63372422  0.13779299  0.50540345     0.18800
H1911       H  0.68563805  0.15937625  0.49231215     0.18700
H1912       H  0.63691709  0.03422162  0.52741789     0.14600
C1913       C  0.18361160  0.56071742  0.74613214     0.30000
C1914       C  0.20903096  0.57360163  0.74407851    -0.36300
C1915       C  0.20801853  0.60120762  0.74604738     0.16000
C1916       C  0.18363293  0.61477383  0.74983800     0.21800
C1917       C  0.15848319  0.60208035  0.75125266    -0.34500
C1918       C  0.15951556  0.57483623  0.74929456     0.15900
O1919       O  0.17938764  0.53510770  0.74573226    -0.26500
C1920       C  0.15220423  0.53305697  0.74869058     0.05700
C1921       C  0.13899153  0.55729895  0.75069199    -0.31400
O1922       O  0.18698991  0.64006280  0.75263908    -0.23200
C1923       C  0.21386186  0.64328454  0.75040332    -0.03200
C1924       C  0.22821323  0.61979059  0.74598863    -0.17600
H1925       H  0.22818254  0.56289528  0.74161186     0.20400
H1926       H  0.13938667  0.61276044  0.75425011     0.18800
H1927       H  0.11725170  0.56130121  0.75305195     0.18700
H1928       H  0.25014074  0.61680029  0.74392454     0.14600
C1929       C  0.21095540  0.41275156  0.75281202     0.30000
C1930       C  0.20657974  0.43643129  0.76682437    -0.36300
C1931       C  0.18668899  0.45373099  0.75640081     0.16000
C1932       C  0.17240508  0.44797952  0.73381099     0.21800
C1933       C  0.17692436  0.42469509  0.71980839    -0.34500
C1934       C  0.19652204  0.40754581  0.73016038     0.15900
O1935       O  0.22669737  0.39264190  0.75984876    -0.26500
C1936       C  0.22210150  0.37454603  0.74134195     0.05700
C1937       C  0.20361571  0.38295094  0.72241644    -0.31400
O1938       O  0.15381141  0.46580678  0.72810046    -0.23200
C1939       C  0.15592809  0.48373461  0.74704269    -0.03200
C1940       C  0.17616432  0.47719449  0.76536416    -0.17600
H1941       H  0.21719472  0.44065488  0.78496220     0.20400
H1942       H  0.16522760  0.41987657  0.70244465     0.18800
H1943       H  0.19532156  0.37190071  0.70610901     0.18700
H1944       H  0.18167068  0.48783129  0.78299444     0.14600
C1945       C  0.08507246  0.50772156  0.69808406     0.30000
C1946       C  0.05868423  0.50799305  0.68666241    -0.36300
C1947       C  0.05784423  0.50631187  0.65895120     0.16000
C1948       C  0.08133642  0.50389058  0.64384388     0.21800
C1949       C  0.10740700  0.50431340  0.65512918    -0.34500
C1950       C  0.10821877  0.50662705  0.68246173     0.15900
O1951       O  0.09117158  0.50828180  0.72348687    -0.26500
C1952       C  0.11863350  0.50779777  0.72386774     0.05700
C1953       C  0.13003270  0.50743861  0.69874296    -0.31400
O1954       O  0.07627485  0.50194090  0.61855033    -0.23200
C1955       C  0.04914326  0.50364783  0.61699374    -0.03200
C1956       C  0.03644461  0.50659601  0.64151305    -0.17600
H1957       H  0.04020438  0.50935437  0.69847008     0.20400
H1958       H  0.12589699  0.50292375  0.64333604     0.18800
H1959       H  0.15154696  0.50686981  0.69336487     0.18700
H1960       H  0.01474208  0.50856836  0.64578898     0.14600
C1961       C  0.10476067  0.51298106  0.81170187     0.30000
C1962       C  0.09989608  0.52424397  0.83648356    -0.36300
C1963       C  0.08266292  0.51031780  0.85332245     0.16000
C1964       C  0.07084022  0.48682615  0.84651589     0.21800
C1965       C  0.07565608  0.47556029  0.82149735    -0.34500
C1966       C  0.09300922  0.48957361  0.80452142     0.15900
O1967       O  0.12078125  0.52250987  0.79326691    -0.26500
C1968       C  0.11938166  0.50515579  0.77363758     0.05700
C1969       C  0.10232815  0.48418788  0.77964932    -0.31400
O1970       O  0.05537523  0.47733095  0.86570135    -0.23200
C1971       C  0.05745451  0.49511625  0.88495689    -0.03200
C1972       C  0.07415933  0.51595859  0.87812697    -0.17600
H1973       H  0.10908386  0.54257560  0.84232647     0.20400
H1974       H  0.06664131  0.45714495  0.81570349     0.18800
H1975       H  0.09802746  0.46718410  0.76760539     0.18700
H1976       H  0.07917414  0.53304782  0.88979749     0.14600
C1977       C  0.24795692  0.70118447  0.90312368     0.30000
C1978       C  0.26034615  0.69951509  0.92782550    -0.36300
C1979       C  0.25030738  0.67997902  0.94425046     0.16000
C1980       C  0.22963740  0.66331367  0.93672553     0.21800
C1981       C  0.21717668  0.66505932  0.91216144    -0.34500
C1982       C  0.22712028  0.68457678  0.89582150     0.15900
O1983       O  0.25472946  0.71730845  0.88428187    -0.26500
C1984       C  0.23787930  0.71098304  0.86486760     0.05700
C1985       C  0.22023611  0.69075072  0.87086716    -0.31400
O1986       O  0.22476312  0.64530108  0.95419776    -0.23200
C1987       C  0.24228969  0.65045545  0.97344387    -0.03200
C1988       C  0.25878674  0.67193831  0.96830978    -0.17600
H1989       H  0.27701648  0.71212094  0.93355900     0.20400
H1990       H  0.20134262  0.65168653  0.90599350     0.18800
H1991       H  0.20508891  0.68156415  0.85845010     0.18700
H1992       H  0.27556725  0.67941090  0.97990839     0.14600
C1993       C  0.19421049  0.58350124  0.99541146     0.30000
C1994       C  0.18283924  0.55847402  0.99266682    -0.36300
C1995       C  0.15408393  0.55776458  0.99108178     0.16000
C1996       C  0.13790451  0.58018449  0.99152714     0.21800
C1997       C  0.14918648  0.60497129  0.99470340    -0.34500
C1998       C  0.17766448  0.60557908  0.99694887     0.15900
O1999       O  0.22055432  0.58918487  0.99588687    -0.26500
C2000       C  0.22070592  0.61524233  0.99808935     0.05700
C2001       C  0.19443420  0.62625820  0.99934585    -0.31400
O2002       O  0.11164052  0.57526524  0.98955181    -0.23200
C2003       C  0.11078679  0.54934578  0.98828491    -0.03200
C2004       C  0.13650475  0.53725858  0.98925022    -0.17600
H2005       H  0.19545957  0.54089650  0.99169624     0.20400
H2006       H  0.13660555  0.62259156  0.99537208     0.18800
H2007       H  0.18861227  0.64679115  0.99987673     0.18700
H2008       H  0.14140581  0.51652106  0.98888034     0.14600
C2009       C  0.35000613  0.57311159  0.96997337     0.30000
C2010       C  0.33165455  0.59067549  0.95803641    -0.36300
C2011       C  0.30766122  0.59667765  0.97232790     0.16000
C2012       C  0.30177264  0.58582857  0.99637952     0.21800
C2013       C  0.31968106  0.56778548  0.00796479    -0.34500
C2014       C  0.34385331  0.56219423  0.99398624     0.15900
O2015       O  0.37520912  0.56723987  0.96191453    -0.26500
C2016       C  0.38514022  0.55246815  0.98115495     0.05700
C2017       C  0.36642096  0.54860528  0.00140439    -0.31400
O2018       O  0.27954867  0.59602023  0.00739220    -0.23200
C2019       C  0.27109739  0.61402153  0.99039505    -0.03200
C2020       C  0.28772156  0.61482615  0.96793103    -0.17600
H2021       H  0.33649226  0.60022897  0.93972792     0.20400
H2022       H  0.31584700  0.55989509  0.02728025     0.18800
H2023       H  0.36964851  0.53858245  0.01981524     0.18700
H2024       H  0.28614620  0.62753726  0.95110215     0.14600
C2025       C  0.26327334  0.68528679  0.09971478     0.30000
C2026       C  0.27774469  0.66890720  0.08207925    -0.36300
C2027       C  0.26407093  0.66249817  0.05873491     0.16000
C2028       C  0.23801214  0.67155713  0.05312042     0.21800
C2029       C  0.22354995  0.68795686  0.07066136    -0.34500
C2030       C  0.23720327  0.69436557  0.09396500     0.15900
O2031       O  0.27188303  0.69345689  0.12291123    -0.26500
C2032       C  0.25101880  0.70798091  0.13207283     0.05700
C2033       C  0.22895266  0.70923727  0.11483260    -0.31400
O2034       O  0.22887077  0.66256755  0.03054175    -0.23200
C2035       C  0.24917640  0.64723933  0.02146661    -0.03200
C2036       C  0.27181279  0.64681444  0.03820972    -0.17600
H2037       H  0.29810815  0.66145702  0.08636786     0.20400
H2038       H  0.20298081  0.69499870  0.06655371     0.18800
H2039       H  0.20951215  0.71943419  0.11745212     0.18700
H2040       H  0.29107685  0.63628620  0.03594050     0.14600
C2041       C  0.74631873  0.27760675  0.09067049     0.30000
C2042       C  0.72927639  0.28641529  0.07026260    -0.36300
C2043       C  0.74028002  0.30580513  0.05398790     0.16000
C2044       C  0.76637071  0.31545704  0.05724238     0.21800
C2045       C  0.78382560  0.30573347  0.07667479    -0.34500
C2046       C  0.77271952  0.28681638  0.09321814     0.15900
O2047       O  0.73842684  0.26409695  0.11138783    -0.26500
C2048       C  0.76008162  0.26478861  0.12725582     0.05700
C2049       C  0.78207770  0.27819768  0.11664309    -0.31400
O2050       O  0.77141059  0.33560138  0.04204009    -0.23200
C2051       C  0.74824024  0.33912319  0.02873715    -0.03200
C2052       C  0.72834203  0.32070836  0.03504672    -0.17600
H2053       H  0.70815371  0.28033021  0.06861900     0.20400
H2054       H  0.80386894  0.31397004  0.08008873     0.18800
H2055       H  0.80092592  0.28368314  0.12631148     0.18700
H2056       H  0.70773809  0.31919710  0.02737809     0.14600
C2057       C  0.80070002  0.40117890  0.99104389     0.30000
C2058       C  0.81928389  0.41324650  0.97399180    -0.36300
C2059       C  0.83851685  0.42975563  0.98578419     0.16000
C2060       C  0.83963043  0.43381925  0.01257778     0.21800
C2061       C  0.82049904  0.42234082  0.02956134    -0.34500
C2062       C  0.80106788  0.40600877  0.01770733     0.15900
O2063       O  0.78171142  0.38431661  0.98425600    -0.26500
C2064       C  0.76946334  0.37817770  0.00681537     0.05700
C2065       C  0.78046691  0.39153553  0.02827185    -0.31400
O2066       O  0.86087761  0.44800156  0.01958652    -0.23200
C2067       C  0.87316588  0.45354820  0.99694209    -0.03200
C2068       C  0.86002429  0.44290494  0.97522974    -0.17600
H2069       H  0.81916175  0.40952610  0.95304438     0.20400
H2070       H  0.82118502  0.42536926  0.05059981     0.18800
H2071       H  0.77432136  0.39045962  0.04867050     0.18700
H2072       H  0.86644729  0.44336578  0.95486992     0.14600
C2073       C  0.68189006  0.39049476  0.02898478     0.30000
C2074       C  0.65713876  0.39305243  0.04320627    -0.36300
C2075       C  0.63932591  0.41343752  0.03543157     0.16000
C2076       C  0.64561446  0.42998132  0.01502649     0.21800
C2077       C  0.67038751  0.42764439  0.00110794    -0.34500
C2078       C  0.68797344  0.40725878  0.00875120     0.15900
O2079       O  0.70089052  0.37208317  0.03192919    -0.26500
C2080       C  0.71925994  0.37694459  0.01312297     0.05700
C2081       C  0.71215553  0.39873620  0.99819321    -0.31400
O2082       O  0.62521520  0.44594279  0.00921329    -0.23200
C2083       C  0.60555926  0.43999144  0.02625694    -0.03200
C2084       C  0.61317027  0.41999034  0.04328894    -0.17600
H2085       H  0.65174572  0.37955107  0.05860957     0.20400
H2086       H  0.67511722  0.44021258  0.98472449     0.18800
H2087       H  0.72307541  0.40675523  0.98160685     0.18700
H2088       H  0.60061371  0.41039703  0.05781157     0.14600
C2089       C  0.32457699  0.94854149  0.73535268     0.30000
C2090       C  0.31286641  0.92849307  0.72032582    -0.36300
C2091       C  0.29398069  0.91254764  0.73331029     0.16000
C2092       C  0.28713397  0.91565281  0.75946141     0.21800
C2093       C  0.29857617  0.93609800  0.77446174    -0.34500
C2094       C  0.31728333  0.95236864  0.76129461     0.15900
O2095       O  0.34344149  0.96505249  0.72726337    -0.26500
C2096       C  0.34830547  0.98013998  0.74816283     0.05700
C2097       C  0.33226586  0.97317694  0.76984900    -0.31400
O2098       O  0.27125878  0.89654706  0.76812978    -0.23200
C2099       C  0.26776805  0.88121611  0.74707348    -0.03200
C2100       C  0.28128834  0.89054359  0.72493812    -0.17600
H2101       H  0.31863809  0.92509641  0.70003083     0.20400
H2102       H  0.29386773  0.93868741  0.79510684     0.18800
H2103       H  0.33218206  0.98188962  0.78929009     0.18700
H2104       H  0.28343267  0.88111836  0.70590650     0.14600
C2105       C  0.32098211  0.05654450  0.74378731     0.30000
C2106       C  0.29513818  0.06923126  0.74213221    -0.36300
C2107       C  0.29514894  0.09682789  0.74387821     0.16000
C2108       C  0.31897429  0.11073954  0.74732095     0.21800
C2109       C  0.34469703  0.09817857  0.74821780    -0.34500
C2110       C  0.34468553  0.07079802  0.74615344     0.15900
O2111       O  0.32584132  0.03094278  0.74405668    -0.26500
C2112       C  0.35310589  0.02878170  0.74648847     0.05700
C2113       C  0.36576745  0.05313782  0.74725036    -0.31400
O2114       O  0.31442284  0.13606003  0.75035695    -0.23200
C2115       C  0.28732026  0.13878776  0.74848067    -0.03200
C2116       C  0.27415458  0.11502113  0.74415369    -0.17600
H2117       H  0.27632802  0.05834730  0.74022732     0.20400
H2118       H  0.36343119  0.10901416  0.75096311     0.18800
H2119       H  0.38740492  0.05713516  0.74941106     0.18700
H2120       H  0.25235735  0.11157952  0.74253291     0.14600
C2121       C  0.40804220  0.98371102  0.80485465     0.30000
C2122       C  0.42315167  0.96661744  0.82134992    -0.36300
C2123       C  0.42706915  0.97520352  0.84756838     0.16000
C2124       C  0.41687178  0.99897801  0.85649642     0.21800
C2125       C  0.40205223  0.01586220  0.84016566    -0.34500
C2126       C  0.39815508  0.00732336  0.81432032     0.15900
O2127       O  0.40041016  0.97937252  0.78019190    -0.26500
C2128       C  0.38548504  0.00062260  0.77379260     0.05700
C2129       C  0.38361667  0.01852926  0.79463765    -0.31400
O2130       O  0.42296963  0.00376370  0.88116144    -0.23200
C2131       C  0.43732032  0.98287342  0.88877945    -0.03200
C2132       C  0.44052717  0.96421155  0.86865680    -0.17600
H2133       H  0.43096341  0.94788200  0.81436147     0.20400
H2134       H  0.39388874  0.03443470  0.84725338     0.18800
H2135       H  0.37177144  0.03653106  0.79605257     0.18700
H2136       H  0.45181383  0.94583353  0.86920553     0.14600
C2137       C  0.39780047  0.00071027  0.68332062     0.30000
C2138       C  0.39681519  0.99929958  0.65578936    -0.36300
C2139       C  0.42196173  0.00136188  0.64241045     0.16000
C2140       C  0.44660989  0.00510523  0.65499323     0.21800
C2141       C  0.44758893  0.00642983  0.68275787    -0.34500
C2142       C  0.42232093  0.00380022  0.69627928     0.15900
O2143       O  0.37655372  0.99940351  0.69945316    -0.26500
C2144       C  0.38726862  0.00110666  0.72347739     0.05700
C2145       C  0.41585983  0.00393122  0.72257806    -0.31400
O2146       O  0.46763961  0.00629523  0.63821411    -0.23200
C2147       C  0.45616595  0.00290846  0.61460808    -0.03200
C2148       C  0.42783200  0.99976019  0.61630688    -0.17600
H2149       H  0.37769151  0.99653883  0.64545546     0.20400
H2150       H  0.46671299  0.00904208  0.69311529     0.18800
H2151       H  0.42977258  0.00656671  0.73885918     0.18700
H2152       H  0.41353254  0.99650206  0.60043775     0.14600
C2153       C  0.44100437  0.78108671  0.14376506     0.30000
C2154       C  0.41770985  0.79744497  0.14716790    -0.36300
C2155       C  0.39798335  0.78884266  0.16531679     0.16000
C2156       C  0.40117535  0.76570835  0.17887557     0.21800
C2157       C  0.42448361  0.74969811  0.17576306    -0.34500
C2158       C  0.44407174  0.75827465  0.15780795     0.15900
O2159       O  0.46109048  0.78421056  0.12665529    -0.26500
C2160       C  0.47716986  0.76304665  0.12973888     0.05700
C2161       C  0.46760216  0.74645594  0.14918675    -0.31400
O2162       O  0.37954169  0.75997505  0.19299839    -0.23200
C2163       C  0.36209726  0.77969728  0.18887078    -0.03200
C2164       C  0.37247609  0.79852965  0.17194638    -0.17600
H2165       H  0.41475362  0.81509427  0.13583206     0.20400
H2166       H  0.42669197  0.73127033  0.18595113     0.18800
H2167       H  0.47616202  0.72778540  0.15518756     0.18700
H2168       H  0.36212495  0.81573615  0.16435194     0.14600
C2169       C  0.48159830  0.69669135  0.08308959     0.30000
C2170       C  0.46700190  0.67325266  0.08102372    -0.36300
C2171       C  0.47808393  0.65431083  0.06376892     0.16000
C2172       C  0.50168245  0.65832509  0.04931953     0.21800
C2173       C  0.51583458  0.68195334  0.05088311    -0.34500
C2174       C  0.50501944  0.70064227  0.06840605     0.15900
O2175       O  0.47660910  0.71596757  0.09990782    -0.26500
C2176       C  0.49726339  0.73237716  0.09607547     0.05700
C2177       C  0.51536879  0.72382090  0.07646672    -0.31400
O2178       O  0.50998786  0.63717615  0.03650473    -0.23200
C2179       C  0.49149027  0.61934509  0.04275542    -0.03200
C2180       C  0.47097328  0.62894164  0.05944830    -0.17600
H2181       H  0.44914789  0.66950349  0.09305862     0.20400
H2182       H  0.53481011  0.68499017  0.04028462     0.18800
H2183       H  0.53423137  0.73285568  0.07014296     0.18700
H2184       H  0.45421016  0.61836191  0.06824725     0.14600
C2185       C  0.49607461  0.80426714  0.06224610     0.30000
C2186       C  0.48211044  0.81904851  0.04328827    -0.36300
C2187       C  0.49690386  0.83953193  0.03204061     0.16000
C2188       C  0.52363038  0.84487421  0.03898017     0.21800
C2189       C  0.53779618  0.82960626  0.05735297    -0.34500
C2190       C  0.52288007  0.80943406  0.06882150     0.15900
O2191       O  0.48552592  0.78562360  0.07665268    -0.26500
C2192       C  0.50569551  0.77886915  0.09295609     0.05700
C2193       C  0.52960286  0.79298501  0.08870613    -0.31400
O2194       O  0.53208435  0.86724054  0.02947467    -0.23200
C2195       C  0.51075764  0.87627525  0.01592660    -0.03200
C2196       C  0.48832704  0.85968993  0.01653312    -0.17600
H2197       H  0.46074078  0.81576253  0.03876519     0.20400
H2198       H  0.55839621  0.83425281  0.06356210     0.18800
H2199       H  0.54909051  0.79153429  0.09870937     0.18700
H2200       H  0.46776006  0.86353930  0.00946635     0.14600
C2201       C  0.69212171  0.90138681  0.01723810     0.30000
C2202       C  0.66798447  0.90689888  0.03120857    -0.36300
C2203       C  0.65005680  0.92487895  0.01960413     0.16000
C2204       C  0.65556089  0.93677779  0.99593826     0.21800
C2205       C  0.67979611  0.93127369  0.98193191    -0.34500
C2206       C  0.69765177  0.91306971  0.99349688     0.15900
O2207       O  0.71107404  0.88431858  0.02403703    -0.26500
C2208       C  0.72899812  0.88467919  0.00432095     0.05700
C2209       C  0.72173340  0.90245071  0.98478064    -0.31400
O2210       O  0.63521104  0.95195020  0.98816094    -0.23200
C2211       C  0.61652610  0.94962004  0.00707603    -0.03200
C2212       C  0.62465690  0.93309962  0.02718245    -0.17600
H2213       H  0.66320572  0.89730709  0.04951156     0.20400
H2214       H  0.68405862  0.94000777  0.96307744     0.18800
H2215       H  0.73238457  0.90634457  0.96655907     0.18700
H2216       H  0.61310408  0.92721202  0.04429937     0.14600
C2217       C  0.81399436  0.90175995  0.98528957     0.30000
C2218       C  0.83703317  0.90754059  0.97001274    -0.36300
C2219       C  0.85380374  0.92733281  0.97982252     0.16000
C2220       C  0.84812058  0.94067419  0.00293638     0.21800
C2221       C  0.82507634  0.93483805  0.01824748    -0.34500
C2222       C  0.80848208  0.91482245  0.00856151     0.15900
O2223       O  0.79597176  0.88356469  0.98009704    -0.26500
C2224       C  0.77882860  0.88457689  0.00047872     0.05700
C2225       C  0.78558299  0.90385714  0.01877184    -0.31400
O2226       O  0.86707969  0.95781904  0.00883724    -0.23200
C2227       C  0.88512537  0.95537362  0.98929396    -0.03200
C2228       C  0.87797672  0.93667096  0.97066230    -0.17600
H2229       H  0.84179782  0.89701415  0.95200446     0.20400
H2230       H  0.82071540  0.94482498  0.03664530     0.18800
H2231       H  0.77512593  0.90883845  0.03695536     0.18700
H2232       H  0.88936448  0.93031268  0.95341958     0.14600
C2233       C  0.76831317  0.81336093  0.10554441     0.30000
C2234       C  0.78472277  0.82305621  0.08524929    -0.36300
C2235       C  0.77068937  0.83156574  0.06289537     0.16000
C2236       C  0.74260532  0.82983168  0.06038769     0.21800
C2237       C  0.72621154  0.82001812  0.08059662    -0.34500
C2238       C  0.74012408  0.81231548  0.10327078     0.15900
O2239       O  0.77694825  0.80555113  0.12866543    -0.26500
C2240       C  0.75395479  0.79992353  0.14146170     0.05700
C2241       C  0.73039038  0.80375470  0.12668474    -0.31400
O2242       O  0.73357051  0.84047977  0.03865007    -0.23200
C2243       C  0.75595119  0.85003256  0.02733890    -0.03200
C2244       C  0.77981059  0.84449323  0.04138554    -0.17600
H2245       H  0.80672763  0.82484140  0.08719456     0.20400
H2246       H  0.70406900  0.81953551  0.07918105     0.18800
H2247       H  0.70927743  0.80048690  0.13232623     0.18700
H2248       H  0.80062806  0.85026007  0.03705741     0.14600
C2249       C  0.68261892  0.89769852  0.25725190     0.30000
C2250       C  0.65659332  0.90925031  0.25441104    -0.36300
C2251       C  0.65548077  0.93663975  0.25445787     0.16000
C2252       C  0.67836903  0.95197772  0.25685605     0.21800
C2253       C  0.70468317  0.94030716  0.26020140    -0.34500
C2254       C  0.70583819  0.91254295  0.26039272     0.15900
O2255       O  0.68797725  0.87240441  0.25612899    -0.26500
C2256       C  0.71505637  0.87034857  0.25891337     0.05700
C2257       C  0.72742821  0.89480061  0.26188638    -0.31400
O2258       O  0.67227016  0.97735212  0.25478678    -0.23200
C2259       C  0.64500949  0.97815273  0.25118639    -0.03200
C2260       C  0.63377056  0.95316053  0.25106914    -0.17600
H2261       H  0.63841048  0.89758279  0.25171749     0.20400
H2262       H  0.72297041  0.95198889  0.26194397     0.18800
H2263       H  0.74907442  0.89893290  0.26355383     0.18700
H2264       H  0.61274945  0.94771086  0.24752624     0.14600
C2265       C  0.94058741  0.74805541  0.35021584     0.30000
C2266       C  0.91955642  0.73460127  0.33764621    -0.36300
C2267       C  0.89628493  0.74946117  0.33124369     0.16000
C2268       C  0.89352216  0.77590937  0.33653654     0.21800
C2269       C  0.91467563  0.78945906  0.34941330    -0.34500
C2270       C  0.93809469  0.77439488  0.35603822     0.15900
O2271       O  0.96376239  0.73755778  0.35852561    -0.26500
C2272       C  0.97648260  0.75714723  0.37056079     0.05700
C2273       C  0.96145598  0.78075732  0.36911985    -0.31400
O2274       O  0.86954333  0.78558494  0.32855557    -0.23200
C2275       C  0.85698459  0.76478041  0.31832578    -0.03200
C2276       C  0.87284891  0.74200028  0.31953241    -0.17600
H2277       H  0.92108207  0.71382061  0.33341676     0.20400
H2278       H  0.91292482  0.81011274  0.35417802     0.18800
H2279       H  0.96658833  0.79981459  0.37698971     0.18700
H2280       H  0.86784263  0.72254041  0.31263249     0.14600
C2281       C  0.82233299  0.55578906  0.26203223     0.30000
C2282       C  0.80919813  0.57445160  0.27827927    -0.36300
C2283       C  0.79571054  0.59515257  0.26548789     0.16000
C2284       C  0.79446557  0.59707717  0.23850250     0.21800
C2285       C  0.80728020  0.57811868  0.22223687    -0.34500
C2286       C  0.82144636  0.55776927  0.23508981     0.15900
O2287       O  0.83858297  0.53656831  0.26993806    -0.26500
C2288       C  0.84903302  0.52625419  0.24786126     0.05700
C2289       C  0.83841905  0.53847356  0.22550881    -0.31400
O2290       O  0.78288999  0.61932863  0.23081933    -0.23200
C2291       C  0.77688969  0.63186275  0.25321585    -0.03200
C2292       C  0.78442143  0.61770334  0.27532971    -0.17600
H2293       H  0.81078793  0.57373921  0.29945187     0.20400
H2294       H  0.80758669  0.57995241  0.20108600     0.18800
H2295       H  0.84336999  0.53449522  0.20512687     0.18700
H2296       H  0.78315950  0.62385473  0.29569113     0.14600
C2297       C  0.55936439  0.76147350  0.15585444     0.30000
C2298       C  0.57830431  0.77414146  0.17208626    -0.36300
C2299       C  0.60020838  0.75859079  0.18118284     0.16000
C2300       C  0.60343654  0.73236334  0.17494235     0.21800
C2301       C  0.58440898  0.71971526  0.15877214    -0.34500
C2302       C  0.56258200  0.73530955  0.14954333     0.15900
O2303       O  0.53782121  0.77236124  0.14437452    -0.26500
C2304       C  0.52721928  0.75301000  0.13004402     0.05700
C2305       C  0.54179478  0.72941878  0.13298411    -0.31400
O2306       O  0.62632167  0.72201907  0.18457240    -0.23200
C2307       C  0.63783802  0.74197784  0.19717189    -0.03200
C2308       C  0.62234866  0.76508913  0.19570604    -0.17600
H2309       H  0.57646521  0.79480148  0.17681848     0.20400
H2310       H  0.58679737  0.69930717  0.15321946     0.18800
H2311       H  0.53793209  0.71051780  0.12409569     0.18700
H2312       H  0.62729247  0.78429504  0.20336942     0.14600
C2313       C  0.64134748  0.56789514  0.50020957     0.30000
C2314       C  0.66560428  0.56858302  0.51486440    -0.36300
C2315       C  0.68694995  0.58316787  0.50415556     0.16000
C2316       C  0.68452890  0.59636292  0.48075282     0.21800
C2317       C  0.66052916  0.59485367  0.46557517    -0.34500
C2318       C  0.63909221  0.58012543  0.47624049     0.15900
O2319       O  0.61830901  0.55712201  0.50764552    -0.26500
C2320       C  0.60097658  0.56206788  0.48813047     0.05700
C2321       C  0.61278960  0.57613897  0.46780144    -0.31400
O2322       O  0.70582428  0.61132085  0.47603650    -0.23200
C2323       C  0.72213742  0.60774458  0.49672063    -0.03200
C2324       C  0.71167915  0.58965159  0.51439886    -0.17600
H2325       H  0.66728162  0.55932704  0.53385028     0.20400
H2326       H  0.65829725  0.60538164  0.44733778     0.18800
H2327       H  0.60316495  0.58324403  0.45007847     0.18700
H2328       H  0.72021165  0.58371943  0.53305245     0.14600
C2329       C  0.83791748  0.54161543  0.51105330     0.30000
C2330       C  0.81901804  0.55534841  0.52711354    -0.36300
C2331       C  0.80079228  0.57237795  0.51411563     0.16000
C2332       C  0.80071197  0.57515881  0.48721376     0.21800
C2333       C  0.81914072  0.56114124  0.47119006    -0.34500
C2334       C  0.83764508  0.54458916  0.48413346     0.15900
O2335       O  0.85957251  0.52807442  0.51911697    -0.26500
C2336       C  0.87320666  0.52240890  0.49703179     0.05700
C2337       C  0.86030913  0.53202428  0.47474680    -0.31400
O2338       O  0.78295877  0.59296822  0.47919294    -0.23200
C2339       C  0.77176178  0.60243160  0.50121602    -0.03200
C2340       C  0.78184096  0.58989969  0.52359969    -0.17600
H2341       H  0.81959865  0.55409460  0.54830552     0.20400
H2342       H  0.82001986  0.56407464  0.45018173     0.18800
H2343       H  0.86817234  0.53227545  0.45483662     0.18700
H2344       H  0.77612394  0.59331554  0.54390650     0.14600
C2345       C  0.74321299  0.69418618  0.40884587     0.30000
C2346       C  0.72972891  0.69005668  0.43282128    -0.36300
C2347       C  0.74229248  0.67210995  0.44985826     0.16000
C2348       C  0.76649174  0.65909194  0.44381625     0.21800
C2349       C  0.78039272  0.66372980  0.42012539    -0.34500
C2350       C  0.76773994  0.68158555  0.40302135     0.15900
O2351       O  0.73386337  0.70830905  0.38909666    -0.26500
C2352       C  0.75269416  0.70476110  0.37037369     0.05700
C2353       C  0.77432574  0.68847582  0.37805269    -0.31400
O2354       O  0.77286326  0.64100329  0.46123820    -0.23200
C2355       C  0.75242039  0.64230419  0.47872731    -0.03200
C2356       C  0.73319716  0.66184465  0.47281679    -0.17600
H2357       H  0.71011414  0.69921950  0.43733745     0.20400
H2358       H  0.79901784  0.65316538  0.41480835     0.18800
H2359       H  0.79175993  0.68177989  0.36647356     0.18700
H2360       H  0.71414352  0.66633279  0.48297323     0.14600
C2361       C  0.58849117  0.48911408  0.81315360     0.30000
C2362       C  0.58359486  0.47525239  0.83626962    -0.36300
C2363       C  0.56388589  0.48606180  0.85337064     0.16000
C2364       C  0.54962997  0.50894554  0.84822691     0.21800
C2365       C  0.55452739  0.52289906  0.82486193    -0.34500
C2366       C  0.57454354  0.51207856  0.80767696     0.15900
O2367       O  0.60661602  0.48258921  0.79495442    -0.26500
C2368       C  0.60457659  0.50149729  0.77717141     0.05700
C2369       C  0.58488665  0.52052683  0.78417962    -0.31400
O2370       O  0.53277686  0.51577152  0.86773279    -0.23200
C2371       C  0.53650560  0.49694905  0.88550101    -0.03200
C2372       C  0.55561678  0.47804269  0.87743425    -0.17600
H2373       H  0.59476947  0.45741483  0.84082593     0.20400
H2374       H  0.54386558  0.54108436  0.82059858     0.18800
H2375       H  0.57923981  0.53804394  0.77355042     0.18700
H2376       H  0.56296041  0.46112879  0.88814256     0.14600
C2377       C  0.57145133  0.49832560  0.70199485     0.30000
C2378       C  0.54507079  0.49569812  0.69087157    -0.36300
C2379       C  0.54367485  0.49626150  0.66316586     0.16000
C2380       C  0.56668714  0.49949791  0.64773803     0.21800
C2381       C  0.59290089  0.50160591  0.65875780    -0.34500
C2382       C  0.59427065  0.50081273  0.68619947     0.15900
O2383       O  0.57774616  0.49879182  0.72733057    -0.26500
C2384       C  0.60503400  0.50155893  0.72767099     0.05700
C2385       C  0.61621072  0.50259897  0.70247441    -0.31400
O2386       O  0.56089005  0.50113738  0.62256439    -0.23200
C2387       C  0.53376123  0.49853547  0.62137905    -0.03200
C2388       C  0.52186567  0.49522241  0.64611239    -0.17600
H2389       H  0.52691139  0.49367970  0.70294281     0.20400
H2390       H  0.61101655  0.50411453  0.64672144     0.18800
H2391       H  0.63758680  0.50444052  0.69702690     0.18700
H2392       H  0.50030930  0.49356711  0.65089197     0.14600
C2393       C  0.64750051  0.43581532  0.75124702     0.30000
C2394       C  0.64451443  0.40859088  0.75228694    -0.36300
C2395       C  0.66871616  0.39358316  0.75057915     0.16000
C2396       C  0.69434172  0.40439125  0.74775903     0.21800
C2397       C  0.69734944  0.43188740  0.74684007    -0.34500
C2398       C  0.67294184  0.44704614  0.74881969     0.15900
O2399       O  0.62738527  0.45322977  0.75268921    -0.26500
C2400       C  0.63972349  0.47634539  0.75156536     0.05700
C2401       C  0.66827900  0.47362096  0.74898078    -0.31400
O2402       O  0.71417101  0.38626074  0.74696935    -0.23200
C2403       C  0.70086314  0.36366920  0.74956206    -0.03200
C2404       C  0.67260530  0.36724546  0.75186006    -0.17600
H2405       H  0.62460968  0.39969067  0.75454107     0.20400
H2406       H  0.71727240  0.44083011  0.74500026     0.18800
H2407       H  0.68340229  0.48884156  0.74721260     0.18700
H2408       H  0.65711945  0.35246251  0.75451573     0.14600
C2409       C  0.72844560  0.33334870  0.94517978     0.30000
C2410       C  0.71372298  0.33043907  0.92174598    -0.36300
C2411       C  0.72580505  0.31395622  0.90267458     0.16000
C2412       C  0.75052431  0.30105663  0.90649419     0.21800
C2413       C  0.76505443  0.30371811  0.92999224    -0.34500
C2414       C  0.75313272  0.32039126  0.94888165     0.15900
O2415       O  0.72172605  0.34875837  0.96517286    -0.26500
C2416       C  0.74253032  0.34575747  0.98181320     0.05700
C2417       C  0.76256012  0.32820724  0.97262515    -0.31400
O2418       O  0.75867015  0.28761661  0.88565475    -0.23200
C2419       C  0.73893512  0.29194975  0.86821844    -0.03200
C2420       C  0.71788465  0.30810365  0.87774429    -0.17600
H2421       H  0.69459120  0.34083097  0.91834721     0.20400
H2422       H  0.78466109  0.29404864  0.93304831     0.18800
H2423       H  0.78155875  0.32247648  0.98204310     0.18700
H2424       H  0.69978756  0.31503591  0.86754528     0.14600
C2425       C  0.59725240  0.21839454  0.83596885     0.30000
C2426       C  0.57907042  0.20619554  0.85342693    -0.36300
C2427       C  0.55451607  0.22001191  0.85909143     0.16000
C2428       C  0.54810016  0.24390783  0.84813120     0.21800
C2429       C  0.56598521  0.25588736  0.83052801    -0.34500
C2430       C  0.59058061  0.24236993  0.82522493     0.15900
O2431       O  0.62220218  0.21008945  0.82904616    -0.26500
C2432       C  0.63144093  0.22922633  0.81382322     0.05700
C2433       C  0.61255518  0.24966205  0.81092194    -0.31400
O2434       O  0.52540776  0.25449373  0.85785423    -0.23200
C2435       C  0.51714750  0.23751378  0.87585399    -0.03200
C2436       C  0.53427002  0.21525939  0.87682149    -0.17600
H2437       H  0.58418359  0.18782875  0.86279872     0.20400
H2438       H  0.56160501  0.27503071  0.82244904     0.18800
H2439       H  0.61497477  0.26773246  0.80021585     0.18700
H2440       H  0.53302843  0.19850389  0.88960119     0.14600
C2441       C  0.89378110  0.25505554  0.69241227     0.30000
C2442       C  0.91801638  0.24036520  0.68846575    -0.36300
C2443       C  0.93837239  0.25215519  0.67324033     0.16000
C2444       C  0.93508500  0.27678125  0.66273500     0.21800
C2445       C  0.91127973  0.29196337  0.66758675    -0.34500
C2446       C  0.89077877  0.28006622  0.68266008     0.15900
O2447       O  0.87107961  0.24646879  0.70327604    -0.26500
C2448       C  0.85324690  0.26624729  0.70080097     0.05700
C2449       C  0.86442079  0.28785835  0.68831820    -0.31400
O2450       O  0.95462875  0.28230368  0.64581100    -0.23200
C2451       C  0.97069249  0.26090315  0.64513160    -0.03200
C2452       C  0.96198129  0.24187772  0.66270854    -0.17600
H2453       H  0.92009991  0.22042701  0.69531279     0.20400
H2454       H  0.90819449  0.31096351  0.65870832     0.18800
H2455       H  0.85417301  0.30592513  0.68283708     0.18700
H2456       H  0.97026192  0.22228986  0.66522010     0.14600
C2457       C  0.75748824  0.18842156  0.59923604     0.30000
C2458       C  0.77303749  0.17431106  0.58054886    -0.36300
C2459       C  0.76025861  0.16982646  0.55634243     0.16000
C2460       C  0.73419370  0.17894956  0.55084381     0.21800
C2461       C  0.71872761  0.19324512  0.56936432    -0.34500
C2462       C  0.73135663  0.19744691  0.59362936     0.15900
O2463       O  0.76478718  0.19364006  0.62360662    -0.26500
C2464       C  0.74302588  0.20614019  0.63368270     0.05700
C2465       C  0.72164442  0.20913033  0.61588481    -0.31400
O2466       O  0.72572023  0.17150447  0.52755658    -0.23200
C2467       C  0.74635033  0.15697056  0.51790455    -0.03200
C2468       C  0.76865976  0.15559415  0.53498535    -0.17600
H2469       H  0.79333033  0.16669756  0.58485712     0.20400
H2470       H  0.69800076  0.19993264  0.56539104     0.18800
H2471       H  0.70163567  0.21807319  0.61909180     0.18700
H2472       H  0.78797541  0.14520122  0.53248088     0.14600
C2473       C  0.94891681  0.00291750  0.65290215     0.30000
C2474       C  0.94991774  0.00412822  0.68070509    -0.36300
C2475       C  0.92453805  0.00191434  0.69418666     0.16000
C2476       C  0.90013689  0.99851587  0.68109587     0.21800
C2477       C  0.89914265  0.99726360  0.65364104    -0.34500
C2478       C  0.92416808  0.99974394  0.64032806     0.15900
O2479       O  0.96965829  0.00556584  0.63598417    -0.26500
C2480       C  0.95767956  0.00426618  0.61239930     0.05700
C2481       C  0.92948838  0.00067364  0.61419087    -0.31400
O2482       O  0.87874974  0.99765655  0.69696003    -0.23200
C2483       C  0.88900713  0.00080043  0.72097853    -0.03200
C2484       C  0.91767856  0.00327291  0.72042733    -0.17600
H2485       H  0.96897918  0.00712764  0.69106051     0.20400
H2486       H  0.87994929  0.99508054  0.64327919     0.18800
H2487       H  0.91483984  0.99941458  0.59831574     0.18700
H2488       H  0.93145083  0.00608604  0.73677439     0.14600
C2489       C  0.92745897  0.02378069  0.84764464     0.30000
C2490       C  0.92382785  0.03545083  0.82275400    -0.36300
C2491       C  0.90798810  0.02133627  0.80433120     0.16000
C2492       C  0.89658014  0.99750233  0.81014550     0.21800
C2493       C  0.90014992  0.98593026  0.83479811    -0.34500
C2494       C  0.91590258  0.99989289  0.85302127     0.15900
O2495       O  0.94181739  0.03303406  0.86781560    -0.26500
C2496       C  0.93936198  0.01468722  0.88626553     0.05700
C2497       C  0.92341563  0.99372921  0.87791357    -0.31400
O2498       O  0.88242423  0.98762396  0.79049161    -0.23200
C2499       C  0.88462497  0.00508186  0.77127705    -0.03200
C2500       C  0.90029663  0.02666172  0.77896153    -0.17600
H2501       H  0.93279736  0.05412640  0.81804033     0.20400
H2502       H  0.89127530  0.96718510  0.83944218     0.18800
H2503       H  0.91840582  0.97614770  0.88858513     0.18700
H2504       H  0.90499996  0.04385098  0.76757119     0.14600
C2505       C  0.81683361  0.05130383  0.75171137     0.30000
C2506       C  0.79482295  0.06497627  0.76401266    -0.36300
C2507       C  0.78641542  0.08873399  0.75228074     0.16000
C2508       C  0.79899680  0.09821753  0.73006777     0.21800
C2509       C  0.82073372  0.08456144  0.71777270    -0.34500
C2510       C  0.82899939  0.06096772  0.72942047     0.15900
O2511       O  0.82889747  0.02939046  0.75983164    -0.26500
C2512       C  0.84907728  0.02481812  0.74241405     0.05700
C2513       C  0.84990902  0.04413602  0.72309561    -0.31400
O2514       O  0.78971732  0.12158573  0.72345865    -0.23200
C2515       C  0.77066204  0.12750496  0.74145032    -0.03200
C2516       C  0.76753243  0.10761378  0.75988836    -0.17600
H2517       H  0.78541158  0.05794554  0.78185132     0.20400
H2518       H  0.83106807  0.09223981  0.70068413     0.18800
H2519       H  0.86435406  0.04617612  0.70708271     0.18700
H2520       H  0.75473187  0.10783665  0.77729790     0.14600
C2521       C  0.69703969  0.59523859  0.76369130     0.30000
C2522       C  0.69087134  0.57181199  0.77703669    -0.36300
C2523       C  0.67055078  0.55581240  0.76558373     0.16000
C2524       C  0.65740105  0.56240022  0.74260605     0.21800
C2525       C  0.66345373  0.58562449  0.72942098    -0.34500
C2526       C  0.68354239  0.60148429  0.74080061     0.15900
O2527       O  0.71453986  0.61376267  0.77102472    -0.26500
C2528       C  0.71202651  0.63202205  0.75244287     0.05700
C2529       C  0.69303658  0.62513415  0.73327724    -0.31400
O2530       O  0.63925437  0.54488552  0.73515174    -0.23200
C2531       C  0.64054345  0.52637504  0.75343000    -0.03200
C2532       C  0.65955891  0.53239562  0.77308420    -0.17600
H2533       H  0.70097571  0.56653575  0.79515348     0.20400
H2534       H  0.65302594  0.59108550  0.71151899     0.18800
H2535       H  0.68648405  0.63641247  0.71646494     0.18700
H2536       H  0.66463683  0.52098126  0.79024517     0.14600
C2537       C  0.74064889  0.67287438  0.60759009     0.30000
C2538       C  0.72375395  0.66068839  0.58906900    -0.36300
C2539       C  0.73621152  0.65379874  0.56510675     0.16000
C2540       C  0.76341533  0.65847114  0.55963646     0.21800
C2541       C  0.78033040  0.67087706  0.57811527    -0.34500
C2542       C  0.76786230  0.67779109  0.60215774     0.15900
O2543       O  0.73311265  0.68113588  0.63115665    -0.26500
C2544       C  0.75574680  0.69161060  0.64101568     0.05700
C2545       C  0.77806772  0.68999872  0.62386600    -0.31400
O2546       O  0.77098588  0.64924060  0.53638384    -0.23200
C2547       C  0.74838076  0.63820631  0.52684556    -0.03200
C2548       C  0.72596696  0.64108809  0.54385805    -0.17600
H2549       H  0.70241215  0.65666117  0.59313962     0.20400
H2550       H  0.80175106  0.67462361  0.57414236     0.18800
H2551       H  0.79864490  0.69716730  0.62682009     0.18700
H2552       H  0.70518778  0.63433016  0.54142107     0.14600
C2553       C  0.55857715  0.77127175  0.66347166     0.30000
C2554       C  0.57449781  0.78074803  0.68451275    -0.36300
C2555       C  0.60320972  0.77719889  0.68207880     0.16000
C2556       C  0.61520554  0.76493674  0.66058400     0.21800
C2557       C  0.59948759  0.75616088  0.63950099    -0.34500
C2558       C  0.57112780  0.75986225  0.64189430     0.15900
O2559       O  0.53136693  0.77170213  0.66145802    -0.26500
C2560       C  0.52662662  0.76017985  0.63826896     0.05700
C2561       C  0.55094159  0.75305170  0.62530143    -0.31400
O2562       O  0.64184030  0.76124900  0.66319719    -0.23200
C2563       C  0.64742810  0.77189890  0.68637854    -0.03200
C2564       C  0.62422300  0.78220976  0.69908330    -0.17600
H2565       H  0.56519217  0.78970091  0.70175020     0.20400
H2566       H  0.60870062  0.74641074  0.62263696     0.18800
H2567       H  0.55350529  0.74400089  0.60615044     0.18700
H2568       H  0.62279001  0.79031167  0.71874932     0.14600
C2569       C  0.82189921  0.89375836  0.75007153     0.30000
C2570       C  0.84722939  0.90649020  0.75179237    -0.36300
C2571       C  0.84675502  0.93368889  0.74791089     0.16000
C2572       C  0.82297398  0.94766212  0.74301670     0.21800
C2573       C  0.79757862  0.93478359  0.74077730    -0.34500
C2574       C  0.79806882  0.90736671  0.74435619     0.15900
O2575       O  0.81778187  0.86852165  0.75363258    -0.26500
C2576       C  0.79095831  0.86551693  0.74983592     0.05700
C2577       C  0.77760520  0.88907836  0.74381904    -0.31400
O2578       O  0.82730488  0.97321560  0.74122287    -0.23200
C2579       C  0.85433327  0.97564814  0.74489125    -0.03200
C2580       C  0.86735612  0.95145476  0.74870438    -0.17600
H2581       H  0.86603747  0.89591436  0.75612266     0.20400
H2582       H  0.77872918  0.94541545  0.73677897     0.18800
H2583       H  0.75598383  0.89231478  0.74011728     0.18700
H2584       H  0.88892945  0.94768266  0.75223402     0.14600
C2585       C  0.73619855  0.83309997  0.94494947     0.30000
C2586       C  0.71985202  0.82834932  0.92299788    -0.36300
C2587       C  0.73327030  0.81668718  0.90157774     0.16000
C2588       C  0.76084430  0.81010054  0.90176137     0.21800
C2589       C  0.77688511  0.81371005  0.92418804    -0.34500
C2590       C  0.76340426  0.82531105  0.94568877     0.15900
O2591       O  0.72899003  0.84740914  0.96538384    -0.26500
C2592       C  0.75178696  0.84878560  0.97956341     0.05700
C2593       C  0.77355596  0.83431074  0.96876323    -0.31400
O2594       O  0.76953887  0.80109293  0.87893096    -0.23200
C2595       C  0.74716314  0.80171676  0.86416142    -0.03200
C2596       C  0.72392683  0.81102498  0.87720842    -0.17600
H2597       H  0.69858524  0.83464235  0.92215988     0.20400
H2598       H  0.79859388  0.80897941  0.92442496     0.18800
H2599       H  0.79452930  0.83297110  0.97558995     0.18700
H2600       H  0.70328088  0.81338617  0.86974099     0.14600
C2601       C  0.88647972  0.72974420  0.84770343     0.30000
C2602       C  0.89841932  0.73085728  0.87279445    -0.36300
C2603       C  0.92574034  0.73940698  0.87391841     0.16000
C2604       C  0.94055911  0.74597691  0.85190474     0.21800
C2605       C  0.92854500  0.74517910  0.82683974    -0.34500
C2606       C  0.90111115  0.73693339  0.82572545     0.15900
O2607       O  0.86057758  0.72430522  0.84234074    -0.26500
C2608       C  0.85854891  0.72791882  0.81651984     0.05700
C2609       C  0.88311966  0.73601482  0.80528686    -0.31400
O2610       O  0.96602165  0.75277989  0.85747152    -0.23200
C2611       C  0.96770897  0.75075414  0.88355914    -0.03200
C2612       C  0.94284678  0.74295383  0.89472367    -0.17600
H2613       H  0.88701946  0.72591327  0.89030723     0.20400
H2614       H  0.93968308  0.75095704  0.80944189     0.18800
H2615       H  0.88662710  0.74215981  0.78527331     0.18700
H2616       H  0.93810646  0.73978912  0.91520112     0.14600
loop_ 
_geom_bond_atom_site_label_1 
_geom_bond_atom_site_label_2 
_geom_bond_distance 
_geom_bond_site_symmetry_2 
_ccdc_geom_bond_type 
Zr1           O2   2.446       .  S
Zr1           O3   2.430       .  S
Zr1           O4   2.449       .  S
Zr1           O7   2.420       .  S
Zr1           O9   2.379       .  S
Zr1          O10   2.391       .  S
Zr1          O11   2.405       .  S
Zr1          O12   2.404       .  S
O2           H58   0.991       .  S
O2           H66   0.991       .  S
O3           C23   1.280       .  A
O4           C25   1.284       .  A
O5          Zr15   2.476       .  S
O5           C24   1.292       .  A
O6          Zr14   2.467       .  S
O6           C25   1.289       .  A
O7           C24   1.281       .  A
O8          Zr16   2.389       .  S
O8           C23   1.274       .  A
O9          Zr14   2.397       .  S
O9          Zr16   2.390       .  S
O10         Zr15   2.396       .  S
O10         Zr16   2.377       .  S
O10          H45   0.966       .  S
O11         Zr14   2.405       .  S
O11         Zr31   2.392       .  S
O11          H48   0.966       .  S
O12         Zr15   2.403       .  S
O12         Zr31   2.393       .  S
Zr13         O38   2.443       .  S
Zr13         O32   2.436       .  S
Zr13         O40   2.422       .  S
Zr13         O28   2.437       .  S
Zr13         O19   2.405       .  S
Zr13         O20   2.400       .  S
Zr13         O21   2.377       .  S
Zr13         O22   2.386       .  S
Zr14         O33   2.435       .  S
Zr14         O26   2.435       .  S
Zr14         O27   2.450       .  S
Zr14         O20   2.401       .  S
Zr14         O21   2.409       .  S
Zr15         O17   2.435       .  S
Zr15         O39   2.436       .  S
Zr15         O41   2.483       .  S
Zr15         O19   2.400       .  S
Zr15         O22   2.407       .  S
Zr16         O42   2.436       .  S
Zr16         O43   2.436       .  S
Zr16         O18   2.437       .  S
Zr16         O19   2.389       .  S
Zr16         O20   2.371       .  S
O17          H54   0.989       .  S
O18          H49   0.991       .  S
O18          H63   0.990       .  S
O20          H46   0.965       .  S
O21         Zr31   2.385       .  S
O22         Zr31   2.379       .  S
O22          H47   0.966       .  S
C23        C2595   1.452       .  S
C24        C2608   1.478       .  S
C25        C2576   1.487       .  S
O26          H62   0.990       .  S
O27          C29   1.287       .  A
O28          C29   1.285       .  A
C29        C2563   1.469       .  S
O30         Zr31   2.435       .  S
O30          H59   0.990       .  S
Zr31         O34   2.435       .  S
Zr31         O35   2.437       .  S
Zr31         O36   2.423       .  S
O32          C37   1.283       .  A
O33          H50   0.990       .  S
O33          H65   0.990       .  S
O34          H51   0.990       .  S
O35          H55   0.990       .  S
O35          H64   0.990       .  S
O36          C37   1.281       .  A
C37        C2544   1.473       .  S
O38          H57   0.990       .  S
O38          H61   0.990       .  S
O39          H53   0.990       .  S
O39          H60   0.990       .  S
O40          C44   1.282       .  A
O41          C44   1.292       .  A
O42          H52   0.990       .  S
O43          H56   0.990       .  S
C44        C2528   1.493       .  S
C67        C2483   1.541       .  S
C67        C2499   1.540       .  S
C67        C2512   1.540       .  S
C67        C2579   1.537   1_545  S
Zr68         O69   2.444       .  S
Zr68         O70   2.442       .  S
Zr68         O71   2.428       .  S
Zr68         O74   2.430       .  S
Zr68         O76   2.383       .  S
Zr68         O77   2.382       .  S
Zr68         O78   2.410       .  S
Zr68         O79   2.393       .  S
O69         H125   0.990       .  S
O69         H133   0.991       .  S
O70          C90   1.283       .  A
O71          C92   1.281       .  A
O72         Zr82   2.452       .  S
O72          C91   1.288       .  A
O73         Zr81   2.473       .  S
O73          C92   1.291       .  A
O74          C91   1.284       .  A
O75         Zr83   2.408       .  S
O75          C90   1.278       .  A
O76         Zr81   2.411       .  S
O76         Zr83   2.384       .  S
O77         Zr82   2.403       .  S
O77         Zr83   2.382       .  S
O77         H112   0.964       .  S
O78         Zr81   2.410       .  S
O78         Zr98   2.397       .  S
O78         H115   0.967       .  S
O79         Zr82   2.394       .  S
O79         Zr98   2.383       .  S
Zr80        O105   2.446       .  S
Zr80         O99   2.432       .  S
Zr80        O107   2.434       .  S
Zr80         O95   2.407       .  S
Zr80         O86   2.394       .  S
Zr80         O87   2.414       .  S
Zr80         O88   2.385       .  S
Zr80         O89   2.375       .  S
Zr81        O100   2.436       .  S
Zr81         O93   2.435       .  S
Zr81         O94   2.477       .  S
Zr81         O87   2.412       .  S
Zr81         O88   2.405       .  S
Zr82         O84   2.435       .  S
Zr82        O106   2.435       .  S
Zr82        O108   2.465       .  S
Zr82         O86   2.396       .  S
Zr82         O89   2.399       .  S
Zr83        O109   2.436       .  S
Zr83        O110   2.435       .  S
Zr83         O85   2.439       .  S
Zr83         O86   2.393       .  S
Zr83         O87   2.389       .  S
O84         H121   0.990       .  S
O85         H116   0.990       .  S
O85         H130   0.990       .  S
O87         H113   0.965       .  S
O88         Zr98   2.382       .  S
O89         Zr98   2.386       .  S
O89         H114   0.966       .  S
C90        C2464   1.468       .  S
C91        C2448   1.475       .  S
C92        C2515   1.485       .  S
O93         H129   0.990       .  S
O94          C96   1.290       .  A
O95          C96   1.278       .  A
C96        C2432   1.477       .  S
O97         Zr98   2.435       .  S
O97         H126   0.990       .  S
Zr98        O101   2.435       .  S
Zr98        O102   2.438       .  S
Zr98        O103   2.412       .  S
O99         C104   1.281       .  A
O100        H117   0.990       .  S
O100        H132   0.990       .  S
O101        H118   0.990       .  S
O102        H122   0.990       .  S
O102        H131   0.990       .  S
O103        C104   1.279       .  A
C104       C2419   1.467       .  S
O105        H124   0.991       .  S
O105        H128   0.991       .  S
O106        H120   0.990       .  S
O106        H127   0.990       .  S
O107        C111   1.285       .  A
O108        C111   1.289       .  A
O109        H119   0.990       .  S
O110        H123   0.990       .  S
C111       C2403   1.486       .  S
C134       C2368   1.530       .  S
C134       C2384   1.533       .  S
C134       C2400   1.534       .  S
C134       C2531   1.538       .  S
C135       C2323   1.527       .  S
C135       C2339   1.522       .  S
C135       C2355   1.528       .  S
C135       C2547   1.529       .  S
Zr136       O137   2.447       .  S
Zr136       O138   2.446       .  S
Zr136       O139   2.428       .  S
Zr136       O142   2.395       .  S
Zr136       O144   2.372       .  S
Zr136       O145   2.381       .  S
Zr136       O146   2.407       .  S
Zr136       O147   2.405       .  S
O137        H193   0.991       .  S
O137        H201   0.991       .  S
O138        C158   1.284       .  A
O139        C160   1.280       .  A
O140       Zr150   2.474       .  S
O140        C159   1.291       .  A
O141       Zr149   2.488       .  S
O141        C160   1.292       .  A
O142        C159   1.277       .  A
O143       Zr151   2.390       .  S
O143        C158   1.274       .  A
O144       Zr149   2.408       .  S
O144       Zr151   2.392       .  S
O145       Zr150   2.400       .  S
O145       Zr151   2.383       .  S
O145        H180   0.966       .  S
O146       Zr149   2.403       .  S
O146       Zr166   2.398       .  S
O146        H183   0.965       .  S
O147       Zr150   2.393       .  S
O147       Zr166   2.403       .  S
Zr148       O173   2.442       .  S
Zr148       O167   2.415       .  S
Zr148       O175   2.431       .  S
Zr148       O163   2.421       .  S
Zr148       O154   2.390       .  S
Zr148       O155   2.403       .  S
Zr148       O156   2.377       .  S
Zr148       O157   2.381       .  S
Zr149       O168   2.435       .  S
Zr149       O161   2.435       .  S
Zr149       O162   2.467       .  S
Zr149       O155   2.416       .  S
Zr149       O156   2.411       .  S
Zr150       O152   2.436       .  S
Zr150       O174   2.439       .  S
Zr150       O176   2.453       .  S
Zr150       O154   2.396       .  S
Zr150       O157   2.404       .  S
Zr151       O177   2.435       .  S
Zr151       O178   2.436       .  S
Zr151       O153   2.436       .  S
Zr151       O154   2.381       .  S
Zr151       O155   2.370       .  S
O152        H189   0.990       .  S
O153        H184   0.990       .  S
O153        H198   0.990       .  S
O155        H181   0.966       .  S
O156       Zr166   2.376       .  S
O157       Zr166   2.376       .  S
O157        H182   0.965       .  S
C158       C2240   1.460       .  S
C159       C2307   1.477       .  S
C160       C2256   1.488       .  S
O161        H197   0.990       .  S
O162        C164   1.289       .  A
O163        C164   1.283       .  A
C164       C2275   1.479       .  S
O165       Zr166   2.436       .  S
O165        H194   0.990       .  S
Zr166       O169   2.436       .  S
Zr166       O170   2.439       .  S
Zr166       O171   2.442       .  S
O167        C172   1.280       .  A
O168        H185   0.990       .  S
O168        H200   0.990       .  S
O169        H186   0.990       .  S
O170        H190   0.990       .  S
O170        H199   0.990       .  S
O171        C172   1.284       .  A
C172       C2352   1.474       .  S
O173        H192   0.990       .  S
O173        H196   0.991       .  S
O174        H188   0.990       .  S
O174        H195   0.989       .  S
O175        C179   1.284       .  A
O176        C179   1.287       .  A
O177        H187   0.990       .  S
O178        H191   0.990       .  S
C179       C2291   1.476       .  S
C202       C2208   1.518       .  S
C202       C2224   1.518       .  S
C202       C2243   1.516       .  S
C202       C2592   1.511   1_554  S
C203       C2160   1.522       .  S
C203       C2176   1.520       .  S
C203       C2192   1.518       .  S
C203       C2304   1.533       .  S
C204       C2096   1.533   1_545  S
C204       C2112   1.535       .  S
C204       C2128   1.545       .  S
C204       C2144   1.540       .  S
C205       C2051   1.522       .  S
C205       C2064   1.527       .  S
C205       C2080   1.524       .  S
C205       C2416   1.517   1_554  S
C206       C1987   1.512       .  S
C206       C2000   1.517       .  S
C206       C2019   1.525       .  S
C206       C2035   1.523   1_556  S
C207       C1920   1.525       .  S
C207       C1939   1.527       .  S
C207       C1952   1.532       .  S
C207       C1968   1.529       .  S
C208       C1875   1.527       .  S
C208       C1891   1.535       .  S
C208       C1904   1.533       .  S
C208       C2467   1.519       .  S
C209       C1824   1.532       .  S
C209       C1843   1.527       .  S
C209       C1859   1.523       .  S
C209       C2272   1.532   1_455  S
Zr210       O211   2.445       .  S
Zr210       O212   2.448       .  S
Zr210       O213   2.448       .  S
Zr210       O216   2.421       .  S
Zr210       O218   2.382       .  S
Zr210       O219   2.390       .  S
Zr210       O220   2.407       .  S
Zr210       O221   2.402       .  S
O211        H267   0.990       .  S
O211        H275   0.991       .  S
O212        C232   1.284       .  A
O213        C234   1.285       .  A
O214       Zr224   2.451       .  S
O214        C233   1.287       .  A
O215       Zr223   2.472       .  S
O215        C234   1.291       .  A
O216        C233   1.282       .  A
O217       Zr225   2.411       .  S
O217        C232   1.279       .  A
O218       Zr223   2.410       .  S
O218       Zr225   2.390       .  S
O219       Zr224   2.406       .  S
O219       Zr225   2.374       .  S
O219        H254   0.966       .  S
O220       Zr223   2.408       .  S
O220       Zr240   2.391       .  S
O220        H257   0.965       .  S
O221       Zr224   2.395       .  S
O221       Zr240   2.382       .  S
Zr222       O247   2.444       .  S
Zr222       O241   2.454       .  S
Zr222       O249   2.426       .  S
Zr222       O237   2.416       .  S
Zr222       O228   2.404       .  S
Zr222       O229   2.415       .  S
Zr222       O230   2.377       .  S
Zr222       O231   2.379       .  S
Zr223       O242   2.435       .  S
Zr223       O235   2.433       .  S
Zr223       O236   2.467       .  S
Zr223       O229   2.407       .  S
Zr223       O230   2.406       .  S
Zr224       O226   2.433       .  S
Zr224       O248   2.435       .  S
Zr224       O250   2.470       .  S
Zr224       O228   2.388       .  S
Zr224       O231   2.401       .  S
Zr225       O251   2.436       .  S
Zr225       O252   2.438       .  S
Zr225       O227   2.439       .  S
Zr225       O228   2.391       .  S
Zr225       O229   2.385       .  S
O226        H263   0.990       .  S
O227        H258   0.990       .  S
O227        H272   0.990       .  S
O229        H255   0.965       .  S
O230       Zr240   2.384       .  S
O231       Zr240   2.380       .  S
O231        H256   0.965       .  S
C232       C2032   1.474       .  S
C233       C2163   1.469       .  S
C234       C1792   1.486       .  S
O235        H271   0.990       .  S
O236        C238   1.289       .  A
O237        C238   1.280       .  A
C238       C1827   1.475       .  S
O239       Zr240   2.436       .  S
O239        H268   0.990       .  S
Zr240       O243   2.435       .  S
Zr240       O244   2.439       .  S
Zr240       O245   2.412       .  S
O241        C246   1.284       .  A
O242        H259   0.990       .  S
O242        H274   0.990       .  S
O243        H260   0.990       .  S
O244        H264   0.990       .  S
O244        H273   0.989       .  S
O245        C246   1.280       .  A
C246       C1776   1.475       .  S
O247        H266   0.991       .  S
O247        H270   0.990       .  S
O248        H262   0.990       .  S
O248        H269   0.990       .  S
O249        C253   1.283       .  A
O250        C253   1.290       .  A
O251        H261   0.990       .  S
O252        H265   0.990       .  S
C253       C1811   1.485       .  S
C276       C1728   1.533       .  S
C276       C1744   1.531       .  S
C276       C1760   1.532       .  S
C276       C1779   1.547       .  S
C277       C1680   1.540       .  S
C277       C1699   1.545       .  S
C277       C1715   1.532       .  S
C277       C2288   1.538       .  S
Zr278       O279   2.442       .  S
Zr278       O280   2.441       .  S
Zr278       O281   2.442       .  S
Zr278       O284   2.422       .  S
Zr278       O286   2.379       .  S
Zr278       O287   2.379       .  S
Zr278       O288   2.404       .  S
Zr278       O289   2.402       .  S
O279        H335   0.990       .  S
O279        H343   0.990       .  S
O280        C300   1.284       .  A
O281        C302   1.285       .  A
O282       Zr292   2.440       .  S
O282        C301   1.285       .  A
O283       Zr291   2.461       .  S
O283        C302   1.289       .  A
O284        C301   1.283       .  A
O285       Zr293   2.426       .  S
O285        C300   1.282       .  A
O286       Zr291   2.409       .  S
O286       Zr293   2.378       .  S
O287       Zr292   2.398       .  S
O287       Zr293   2.378       .  S
O287        H322   0.965       .  S
O288       Zr291   2.407       .  S
O288       Zr308   2.394       .  S
O288        H325   0.965       .  S
O289       Zr292   2.395       .  S
O289       Zr308   2.391       .  S
Zr290       O315   2.442       .  S
Zr290       O309   2.431       .  S
Zr290       O317   2.424       .  S
Zr290       O305   2.399       .  S
Zr290       O296   2.392       .  S
Zr290       O297   2.408       .  S
Zr290       O298   2.376       .  S
Zr290       O299   2.372       .  S
Zr291       O310   2.436       .  S
Zr291       O303   2.435       .  S
Zr291       O304   2.478       .  S
Zr291       O297   2.407       .  S
Zr291       O298   2.399       .  S
Zr292       O294   2.435       .  S
Zr292       O316   2.435       .  S
Zr292       O318   2.445       .  S
Zr292       O296   2.392       .  S
Zr292       O299   2.388       .  S
Zr293       O319   2.433       .  S
Zr293       O320   2.436       .  S
Zr293       O295   2.437       .  S
Zr293       O296   2.396       .  S
Zr293       O297   2.392       .  S
O294        H331   0.990       .  S
O295        H326   0.990       .  S
O295        H340   0.990       .  S
O297        H323   0.962       .  S
O298       Zr308   2.380       .  S
O299       Zr308   2.378       .  S
O299        H324   0.966       .  S
C300       C1667   1.474       .  S
C301       C2048   1.470       .  S
C302       C1712   1.481       .  S
O303        H339   0.990       .  S
O304        C306   1.291       .  A
O305        C306   1.277       .  A
C306       C1872   1.479       .  S
O307       Zr308   2.435       .  S
O307        H336   0.991       .  S
Zr308       O311   2.437       .  S
Zr308       O312   2.437       .  S
Zr308       O313   2.425       .  S
O309        C314   1.282       .  A
O310        H327   0.990       .  S
O310        H342   0.990       .  S
O311        H328   0.990       .  S
O312        H332   0.990       .  S
O312        H341   0.990       .  S
O313        C314   1.282       .  A
C314       C1651   1.466       .  S
O315        H334   0.990       .  S
O315        H338   0.991       .  S
O316        H330   0.990       .  S
O316        H337   0.990       .  S
O317        C321   1.282       .  A
O318        C321   1.286       .  A
O319        H329   0.990       .  S
O320        H333   0.990       .  S
C321       C1632   1.474       .  S
C344       C1600   1.548       .  S
C344       C1619   1.542       .  S
C344       C1635   1.536       .  S
C344       C2259   1.543   1_545  S
C345       C1555   1.525       .  S
C345       C1571   1.524       .  S
C345       C1587   1.530       .  S
C345       C2435   1.532       .  S
Zr346       O347   2.442       .  S
Zr346       O348   2.420       .  S
Zr346       O349   2.430       .  S
Zr346       O352   2.426       .  S
Zr346       O354   2.381       .  S
Zr346       O355   2.382       .  S
Zr346       O356   2.401       .  S
Zr346       O357   2.394       .  S
O347        H403   0.990       .  S
O347        H411   0.990       .  S
O348        C368   1.281       .  A
O349        C370   1.284       .  A
O350       Zr360   2.455       .  S
O350        C369   1.289       .  A
O351       Zr359   2.451       .  S
O351        C370   1.286       .  A
O352        C369   1.283       .  A
O353       Zr361   2.429       .  S
O353        C368   1.283       .  A
O354       Zr359   2.403       .  S
O354       Zr361   2.378       .  S
O355       Zr360   2.399       .  S
O355       Zr361   2.379       .  S
O355        H390   0.965       .  S
O356       Zr359   2.404       .  S
O356       Zr376   2.388       .  S
O356        H393   0.965       .  S
O357       Zr360   2.395       .  S
O357       Zr376   2.383       .  S
Zr358       O383   2.444       .  S
Zr358       O377   2.435       .  S
Zr358       O385   2.429       .  S
Zr358       O373   2.422       .  S
Zr358       O364   2.395       .  S
Zr358       O365   2.408       .  S
Zr358       O366   2.380       .  S
Zr358       O367   2.381       .  S
Zr359       O378   2.435       .  S
Zr359       O371   2.437       .  S
Zr359       O372   2.452       .  S
Zr359       O365   2.404       .  S
Zr359       O366   2.398       .  S
Zr360       O362   2.437       .  S
Zr360       O384   2.436       .  S
Zr360       O386   2.460       .  S
Zr360       O364   2.390       .  S
Zr360       O367   2.398       .  S
Zr361       O387   2.436       .  S
Zr361       O388   2.435       .  S
Zr361       O363   2.435       .  S
Zr361       O364   2.390       .  S
Zr361       O365   2.396       .  S
O362        H399   0.990       .  S
O363        H394   0.990       .  S
O363        H408   0.990       .  S
O365        H391   0.965       .  S
O366       Zr376   2.385       .  S
O367       Zr376   2.384       .  S
O367        H392   0.966       .  S
C368       C1520   1.466       .  S
C369       C1504   1.471       .  S
C370       C1936   1.477       .  S
O371        H407   0.990       .  S
O372        C374   1.286       .  A
O373        C374   1.278       .  A
C374       C1584   1.466       .  S
O375       Zr376   2.436       .  S
O375        H404   0.990       .  S
Zr376       O379   2.435       .  S
Zr376       O380   2.436       .  S
Zr376       O381   2.401       .  S
O377        C382   1.284       .  A
O378        H395   0.990       .  S
O378        H410   0.990       .  S
O379        H396   0.990       .  S
O380        H400   0.990       .  S
O380        H409   0.990       .  S
O381        C382   1.276       .  A
C382       C1536   1.463       .  S
O383        H402   0.991       .  S
O383        H406   0.991       .  S
O384        H398   0.990       .  S
O384        H405   0.990       .  S
O385        C389   1.283       .  A
O386        C389   1.288       .  A
O387        H397   0.991       .  S
O388        H401   0.990       .  S
C389       C2115   1.478       .  S
C412       C1472   1.527       .  S
C412       C1488   1.534       .  S
C412       C1507   1.535   1_655  S
C412       C2451   1.535       .  S
C413       C1424   1.524       .  S
C413       C1440   1.529   1_655  S
C413       C1456   1.529       .  S
C413       C1664   1.528       .  S
Zr414       O415   2.440       .  S
Zr414       O416   2.433       .  S
Zr414       O417   2.427       .  S
Zr414       O420   2.390       .  S
Zr414       O422   2.370   1_545  S
Zr414       O423   2.384   1_554  S
Zr414       O424   2.398   1_455  S
Zr414       O425   2.405   1_455  S
O415        H471   0.990       .  S
O415        H479   0.990       .  S
O416        C436   1.283       .  A
O417        C438   1.285   1_545  A
O418       Zr428   2.479       .  S
O418        C437   1.292   1_656  A
O419       Zr427   2.472       .  S
O419        C438   1.291       .  A
O420        C437   1.278       .  A
O421       Zr429   2.439       .  S
O421        C436   1.284   1_556  A
O422       Zr427   2.403       .  S
O422       Zr429   2.375   1_564  S
O423       Zr428   2.401   1_455  S
O423       Zr429   2.373       .  S
O423        H458   0.966       .  S
O424       Zr427   2.400   1_645  S
O424       Zr444   2.396       .  S
O424        H461   0.965       .  S
O425       Zr428   2.402   1_554  S
O425       Zr444   2.390       .  S
Zr426       O451   2.442       .  S
Zr426       O445   2.423       .  S
Zr426       O453   2.413       .  S
Zr426       O441   2.401       .  S
Zr426       O432   2.400   1_665  S
Zr426       O433   2.402   1_655  S
Zr426       O434   2.374   1_556  S
Zr426       O435   2.379   1_565  S
Zr427       O446   2.438   1_455  S
Zr427       O439   2.434       .  S
Zr427       O440   2.471       .  S
Zr427       O433   2.403   1_554  S
Zr427       O434   2.386   1_455  S
Zr428       O430   2.440       .  S
Zr428       O452   2.435   1_655  S
Zr428       O454   2.494       .  S
Zr428       O432   2.399   1_655  S
Zr428       O435   2.391       .  S
Zr429       O455   2.434       .  S
Zr429       O456   2.434   1_545  S
Zr429       O431   2.439   1_545  S
Zr429       O432   2.412       .  S
Zr429       O433   2.397   1_545  S
O430        H467   0.989       .  S
O431        H462   0.990       .  S
O431        H476   0.990       .  S
O433        H459   0.963       .  S
O434       Zr444   2.374   1_565  S
O435       Zr444   2.379   1_556  S
O435        H460   0.966       .  S
C436       C1395   1.477       .  S
C437       C1459   1.474       .  S
C438       C1408   1.486       .  S
O439        H475   0.990       .  S
O440        C442   1.291   1_454  A
O441        C442   1.279       .  A
C442       C1376   1.474       .  S
O443       Zr444   2.436       .  S
O443        H472   0.989       .  S
Zr444       O447   2.436   1_545  S
Zr444       O448   2.438       .  S
Zr444       O449   2.413   1_545  S
O445        C450   1.282       .  A
O446        H463   0.990       .  S
O446        H478   0.990       .  S
O447        H464   0.990       .  S
O448        H468   0.990       .  S
O448        H477   0.990       .  S
O449        C450   1.279   1_554  A
C450       C2227   1.462       .  S
O451        H470   0.990       .  S
O451        H474   0.990   1_655  S
O452        H466   0.990       .  S
O452        H473   0.990   1_455  S
O453        C457   1.282   1_565  A
O454        C457   1.295       .  A
O455        H465   0.990       .  S
O456        H469   0.990       .  S
C457       C2496   1.494       .  S
Zr480       O481   2.443       .  S
Zr480       O482   2.420       .  S
Zr480       O483   2.431       .  S
Zr480       O486   2.411       .  S
Zr480       O488   2.377       .  S
Zr480       O489   2.382       .  S
Zr480       O490   2.400       .  S
Zr480       O491   2.397       .  S
O481        H537   0.991       .  S
O481        H545   0.990       .  S
O482        C502   1.281       .  A
O483        C504   1.282       .  A
O484       Zr494   2.440       .  S
O484        C503   1.284       .  A
O485       Zr493   2.484       .  S
O485        C504   1.291       .  A
O486        C503   1.279       .  A
O487       Zr495   2.435       .  S
O487        C502   1.281       .  A
O488       Zr493   2.409       .  S
O488       Zr495   2.388       .  S
O489       Zr494   2.401       .  S
O489       Zr495   2.378       .  S
O489        H524   0.966       .  S
O490       Zr493   2.407       .  S
O490       Zr510   2.385       .  S
O490        H527   0.963       .  S
O491       Zr494   2.395       .  S
O491       Zr510   2.383       .  S
Zr492       O517   2.442       .  S
Zr492       O511   2.446       .  S
Zr492       O519   2.432       .  S
Zr492       O507   2.424       .  S
Zr492       O498   2.395       .  S
Zr492       O499   2.414       .  S
Zr492       O500   2.384       .  S
Zr492       O501   2.378       .  S
Zr493       O512   2.440       .  S
Zr493       O505   2.432       .  S
Zr493       O506   2.474       .  S
Zr493       O499   2.419       .  S
Zr493       O500   2.405       .  S
Zr494       O496   2.437       .  S
Zr494       O518   2.439       .  S
Zr494       O520   2.456       .  S
Zr494       O498   2.393       .  S
Zr494       O501   2.396       .  S
Zr495       O521   2.436       .  S
Zr495       O522   2.436       .  S
Zr495       O497   2.436       .  S
Zr495       O498   2.398       .  S
Zr495       O499   2.406       .  S
O496        H533   0.990       .  S
O497        H528   0.990       .  S
O497        H542   0.990       .  S
O499        H525   0.966       .  S
O500       Zr510   2.376       .  S
O501       Zr510   2.382       .  S
O501        H526   0.966       .  S
C502       C1443   1.473       .  S
C503       C1360   1.455       .  S
C504       C1344   1.492       .  S
O505        H541   0.990       .  S
O506        C508   1.291       .  A
O507        C508   1.281       .  A
C508       C1315   1.481       .  S
O509       Zr510   2.437       .  S
O509        H538   0.990       .  S
Zr510       O513   2.435       .  S
Zr510       O514   2.439       .  S
Zr510       O515   2.395       .  S
O511        C516   1.284       .  A
O512        H529   0.990       .  S
O512        H544   0.990       .  S
O513        H530   0.989       .  S
O514        H534   0.990       .  S
O514        H543   0.990       .  S
O515        C516   1.277       .  A
C516       C1331   1.464       .  S
O517        H536   0.990       .  S
O517        H540   0.991       .  S
O518        H532   0.990       .  S
O518        H539   0.990       .  S
O519        C523   1.284       .  A
O520        C523   1.288       .  A
O521        H531   0.990       .  S
O522        H535   0.990       .  S
C523       C1296   1.481       .  S
C546       C1280   1.540       .  S
C546       C1347   1.547       .  S
C546       C1411   1.542       .  S
C546       C1808   1.539   1_545  S
Zr547       O548   2.444       .  S
Zr547       O549   2.464       .  S
Zr547       O550   2.436       .  S
Zr547       O553   2.420       .  S
Zr547       O555   2.380   1_655  S
Zr547       O556   2.382       .  S
Zr547       O557   2.418   1_545  S
Zr547       O558   2.405       .  S
O548        H604   0.990       .  S
O548        H612   0.991       .  S
O549        C569   1.287       .  A
O550        C571   1.284       .  A
O551       Zr561   2.452       .  S
O551        C570   1.287       .  A
O552       Zr560   2.489   1_655  S
O552        C571   1.293   1_565  A
O553        C570   1.282       .  A
O554       Zr562   2.403       .  S
O554        C569   1.278   1_455  A
O555       Zr560   2.410   1_545  S
O555       Zr562   2.388       .  S
O556       Zr561   2.406       .  S
O556       Zr562   2.375   1_655  S
O556        H591   0.966       .  S
O557       Zr560   2.412   1_655  S
O557       Zr577   2.391       .  S
O557        H594   0.963       .  S
O558       Zr561   2.402       .  S
O558       Zr577   2.395   1_545  S
Zr559       O584   2.442       .  S
Zr559       O578   2.428       .  S
Zr559       O586   2.415       .  S
Zr559       O574   2.399       .  S
Zr559       O565   2.390   1_565  S
Zr559       O566   2.402   1_565  S
Zr559       O567   2.379       .  S
Zr559       O568   2.376   1_455  S
Zr560       O579   2.437       .  S
Zr560       O572   2.433   1_565  S
Zr560       O573   2.487       .  S
Zr560       O566   2.408   1_565  S
Zr560       O567   2.403       .  S
Zr561       O563   2.435       .  S
Zr561       O585   2.436       .  S
Zr561       O587   2.476       .  S
Zr561       O565   2.389   1_655  S
Zr561       O568   2.399   1_545  S
Zr562       O588   2.436       .  S
Zr562       O589   2.435       .  S
Zr562       O564   2.436       .  S
Zr562       O565   2.388       .  S
Zr562       O566   2.390       .  S
O563        H600   0.990       .  S
O564        H595   0.990       .  S
O564        H609   0.990       .  S
O566        H592   0.967       .  S
O567       Zr577   2.374   1_455  S
O568       Zr577   2.377       .  S
O568        H593   0.967       .  S
C569       C1491   1.479       .  S
C570       C1888   1.474       .  S
C571       C2480   1.491       .  S
O572        H608   0.990       .  S
O573        C575   1.293       .  A
O574        C575   1.278       .  A
C575       C1747   1.484       .  S
O576       Zr577   2.435       .  S
O576        H605   0.990       .  S
Zr577       O580   2.435       .  S
Zr577       O581   2.437       .  S
Zr577       O582   2.425       .  S
O578        C583   1.282       .  A
O579        H596   0.990       .  S
O579        H611   0.990       .  S
O580        H597   0.990       .  S
O581        H601   0.990       .  S
O581        H610   0.989       .  S
O582        C583   1.282   1_655  A
C583       C1856   1.469       .  S
O584        H603   0.991       .  S
O584        H607   0.990       .  S
O585        H599   0.990       .  S
O585        H606   0.990       .  S
O586        C590   1.282   1_565  A
O587        C590   1.292   1_655  A
O588        H598   0.990       .  S
O589        H602   0.990       .  S
C590       C1283   1.484       .  S
C613       C1264   1.525       .  S
C613       C1363   1.524       .  S
C613       C1392   1.522       .  S
C613       C1539   1.521   1_554  S
Zr614       O615   2.441       .  S
Zr614       O616   2.417       .  S
Zr614       O617   2.427       .  S
Zr614       O620   2.403       .  S
Zr614       O622   2.375   1_545  S
Zr614       O623   2.377   1_556  S
Zr614       O624   2.397   1_545  S
Zr614       O625   2.395       .  S
O615        H671   0.991       .  S
O615        H679   0.990       .  S
O616        C636   1.280       .  A
O617        C638   1.283   1_545  A
O618       Zr628   2.455       .  S
O618        C637   1.288   1_554  A
O619       Zr627   2.471       .  S
O619        C638   1.290       .  A
O620        C637   1.281       .  A
O621       Zr629   2.425   1_545  S
O621        C636   1.281   1_554  A
O622       Zr627   2.401       .  S
O622       Zr629   2.380   1_556  S
O623       Zr628   2.394       .  S
O623       Zr629   2.373   1_545  S
O623        H658   0.965       .  S
O624       Zr627   2.406       .  S
O624       Zr644   2.391   1_565  S
O624        H661   0.965       .  S
O625       Zr628   2.402   1_556  S
O625       Zr644   2.388       .  S
Zr626       O651   2.443       .  S
Zr626       O645   2.421       .  S
Zr626       O653   2.426       .  S
Zr626       O641   2.408       .  S
Zr626       O632   2.393       .  S
Zr626       O633   2.405       .  S
Zr626       O634   2.382   1_554  S
Zr626       O635   2.375   1_565  S
Zr627       O646   2.438       .  S
Zr627       O639   2.436       .  S
Zr627       O640   2.460       .  S
Zr627       O633   2.404   1_556  S
Zr627       O634   2.398       .  S
Zr628       O630   2.436       .  S
Zr628       O652   2.437       .  S
Zr628       O654   2.467       .  S
Zr628       O632   2.393   1_545  S
Zr628       O635   2.387       .  S
Zr629       O655   2.436   1_565  S
Zr629       O656   2.434       .  S
Zr629       O631   2.437       .  S
Zr629       O632   2.402       .  S
Zr629       O633   2.388       .  S
O630        H667   0.990       .  S
O631        H662   0.990       .  S
O631        H676   0.990       .  S
O633        H659   0.964       .  S
O634       Zr644   2.377   1_565  S
O635       Zr644   2.379   1_554  S
O635        H660   0.963       .  S
C636       C1267   1.459       .  S
C637       C1568   1.471       .  S
C638       C2131   1.484       .  S
O639        H675   0.990       .  S
O640        C642   1.288   1_556  A
O641        C642   1.280       .  A
C642       C2195   1.465       .  S
O643       Zr644   2.435       .  S
O643        H672   0.990       .  S
Zr644       O647   2.436   1_545  S
Zr644       O648   2.438       .  S
Zr644       O649   2.411   1_545  S
O645        C650   1.283       .  A
O646        H663   0.990       .  S
O646        H678   0.991       .  S
O647        H664   0.990       .  S
O648        H668   0.990       .  S
O648        H677   0.990       .  S
O649        C650   1.279   1_556  A
C650       C2211   1.459       .  S
O651        H670   0.990       .  S
O651        H674   0.990       .  S
O652        H666   0.990       .  S
O652        H673   0.990       .  S
O653        C657   1.283   1_565  A
O654        C657   1.290       .  A
O655        H665   0.990       .  S
O656        H669   0.990       .  S
C657       C1616   1.483       .  S
Zr680       O681   2.444       .  S
Zr680       O682   2.446       .  S
Zr680       O683   2.450       .  S
Zr680       O686   2.407       .  S
Zr680       O688   2.366       .  S
Zr680       O689   2.389       .  S
Zr680       O690   2.399   1_545  S
Zr680       O691   2.414       .  S
O681        H737   0.991       .  S
O681        H745   0.991       .  S
O682        C702   1.285       .  A
O683        C704   1.286       .  A
O684       Zr694   2.469       .  S
O684        C703   1.291       .  A
O685       Zr693   2.480       .  S
O685        C704   1.292   1_565  A
O686        C703   1.280       .  A
O687       Zr695   2.402       .  S
O687        C702   1.277       .  A
O688       Zr693   2.392   1_545  S
O688       Zr695   2.388       .  S
O689       Zr694   2.407       .  S
O689       Zr695   2.374       .  S
O689        H724   0.965       .  S
O690       Zr693   2.402       .  S
O690       Zr710   2.396       .  S
O690        H727   0.964       .  S
O691       Zr694   2.408       .  S
O691       Zr710   2.397   1_545  S
Zr692       O717   2.442       .  S
Zr692       O711   2.421       .  S
Zr692       O719   2.431       .  S
Zr692       O707   2.418       .  S
Zr692       O698   2.386   1_565  S
Zr692       O699   2.404   1_565  S
Zr692       O700   2.385       .  S
Zr692       O701   2.383       .  S
Zr693       O712   2.437       .  S
Zr693       O705   2.434   1_565  S
Zr693       O706   2.449       .  S
Zr693       O699   2.415   1_565  S
Zr693       O700   2.413       .  S
Zr694       O696   2.438   1_545  S
Zr694       O718   2.438       .  S
Zr694       O720   2.488       .  S
Zr694       O698   2.391       .  S
Zr694       O701   2.402   1_545  S
Zr695       O721   2.435       .  S
Zr695       O722   2.436       .  S
Zr695       O697   2.438       .  S
Zr695       O698   2.381       .  S
Zr695       O699   2.382       .  S
O696        H733   0.990   1_565  S
O697        H728   0.990       .  S
O697        H742   0.990       .  S
O699        H725   0.965       .  S
O700       Zr710   2.379       .  S
O701       Zr710   2.383       .  S
O701        H726   0.965       .  S
C702       C1251   1.462       .  S
C703       C1907   1.468       .  S
C704       C1603   1.500       .  S
O705        H741   0.990       .  S
O706        C708   1.286       .  A
O707        C708   1.279       .  A
C708       C1763   1.458       .  S
O709       Zr710   2.434       .  S
O709        H738   0.990       .  S
Zr710       O713   2.433       .  S
Zr710       O714   2.438       .  S
Zr710       O715   2.426       .  S
O711        C716   1.281       .  A
O712        H729   0.990       .  S
O712        H744   0.990       .  S
O713        H730   0.989       .  S
O714        H734   0.990       .  S
O714        H743   0.990       .  S
O715        C716   1.280       .  A
C716       C1232   1.468       .  S
O717        H736   0.991       .  S
O717        H740   0.990       .  S
O718        H732   0.990       .  S
O718        H739   0.990       .  S
O719        C723   1.284   1_565  A
O720        C723   1.294       .  A
O721        H731   0.990       .  S
O722        H735   0.990       .  S
C723       C2147   1.497       .  S
C746       C1219   1.523       .  S
C746       C1248   1.520       .  S
C746       C1328   1.519       .  S
C746       C1648   1.522       .  S
Zr747       O748   2.441       .  S
Zr747       O749   2.426       .  S
Zr747       O750   2.438       .  S
Zr747       O753   2.415       .  S
Zr747       O755   2.377       .  S
Zr747       O756   2.389   1_554  S
Zr747       O757   2.401       .  S
Zr747       O758   2.400   1_655  S
O748        H804   0.990       .  S
O748        H812   0.990       .  S
O749        C769   1.281   1_554  A
O750        C771   1.285       .  A
O751       Zr761   2.455   1_655  S
O751        C770   1.288       .  A
O752       Zr760   2.480       .  S
O752        C771   1.293       .  A
O753        C770   1.283   1_554  A
O754       Zr762   2.435       .  S
O754        C769   1.283       .  A
O755       Zr760   2.405       .  S
O755       Zr762   2.385   1_554  S
O756       Zr761   2.402   1_655  S
O756       Zr762   2.376       .  S
O756        H791   0.966       .  S
O757       Zr760   2.408       .  S
O757       Zr777   2.401   1_655  S
O757        H794   0.965       .  S
O758       Zr761   2.403   1_554  S
O758       Zr777   2.384       .  S
Zr759       O784   2.444       .  S
Zr759       O778   2.417       .  S
Zr759       O786   2.412       .  S
Zr759       O774   2.400       .  S
Zr759       O765   2.394   1_455  S
Zr759       O766   2.401   1_455  S
Zr759       O767   2.376   1_556  S
Zr759       O768   2.376       .  S
Zr760       O779   2.437   1_655  S
Zr760       O772   2.434       .  S
Zr760       O773   2.484       .  S
Zr760       O766   2.402   1_554  S
Zr760       O767   2.395   1_655  S
Zr761       O763   2.437       .  S
Zr761       O785   2.435   1_455  S
Zr761       O787   2.480       .  S
Zr761       O765   2.390   1_455  S
Zr761       O768   2.390       .  S
Zr762       O788   2.434       .  S
Zr762       O789   2.440       .  S
Zr762       O764   2.437       .  S
Zr762       O765   2.399       .  S
Zr762       O766   2.397       .  S
O763        H800   0.990       .  S
O764        H795   0.990       .  S
O764        H809   0.990       .  S
O766        H792   0.962       .  S
O767       Zr777   2.380       .  S
O768       Zr777   2.374   1_556  S
O768        H793   0.966       .  S
C769       C2067   1.469       .  S
C770       C1427   1.473   1_556  S
C771       C1696   1.496       .  S
O772        H808   0.990       .  S
O773        C775   1.294   1_654  A
O774        C775   1.278       .  A
C775       C1200   1.476       .  S
O776       Zr777   2.435       .  S
O776        H805   0.990       .  S
Zr777       O780   2.436       .  S
Zr777       O781   2.438       .  S
Zr777       O782   2.425       .  S
O778        C783   1.280       .  A
O779        H796   0.990       .  S
O779        H811   0.990       .  S
O780        H797   0.991       .  S
O781        H801   0.990       .  S
O781        H810   0.990       .  S
O782        C783   1.280   1_554  A
C783       C2003   1.456       .  S
O784        H803   0.990       .  S
O784        H807   0.990   1_455  S
O785        H799   0.990       .  S
O785        H806   0.990       .  S
O786        C790   1.282       .  A
O787        C790   1.292       .  A
O788        H798   0.989       .  S
O789        H802   0.989       .  S
C790       C1971   1.487       .  S
Zr813       O814   2.443       .  S
Zr813       O815   2.427       .  S
Zr813       O816   2.424       .  S
Zr813       O819   2.396       .  S
Zr813       O821   2.374       .  S
Zr813       O822   2.385   1_554  S
Zr813       O823   2.401       .  S
Zr813       O824   2.392   1_554  S
O814        H870   0.990       .  S
O814        H878   0.991       .  S
O815        C835   1.281       .  A
O816        C837   1.281       .  A
O817       Zr827   2.462       .  S
O817        C836   1.288       .  A
O818       Zr826   2.472       .  S
O818        C837   1.290       .  A
O819        C836   1.278   1_554  A
O820       Zr828   2.421       .  S
O820        C835   1.281       .  A
O821       Zr826   2.407       .  S
O821       Zr828   2.387       .  S
O822       Zr827   2.400       .  S
O822       Zr828   2.377   1_556  S
O822        H857   0.967       .  S
O823       Zr826   2.404       .  S
O823       Zr843   2.388       .  S
O823        H860   0.966       .  S
O824       Zr827   2.390       .  S
O824       Zr843   2.377   1_556  S
Zr825       O850   2.444       .  S
Zr825       O844   2.439       .  S
Zr825       O852   2.426       .  S
Zr825       O840   2.423       .  S
Zr825       O831   2.397       .  S
Zr825       O832   2.410   1_556  S
Zr825       O833   2.382   1_556  S
Zr825       O834   2.382       .  S
Zr826       O845   2.436       .  S
Zr826       O838   2.436       .  S
Zr826       O839   2.460       .  S
Zr826       O832   2.412       .  S
Zr826       O833   2.407       .  S
Zr827       O829   2.436       .  S
Zr827       O851   2.436       .  S
Zr827       O853   2.460       .  S
Zr827       O831   2.394       .  S
Zr827       O834   2.400       .  S
Zr828       O854   2.435   1_554  S
Zr828       O855   2.437   1_554  S
Zr828       O830   2.437       .  S
Zr828       O831   2.390   1_554  S
Zr828       O832   2.390       .  S
O829        H866   0.990       .  S
O830        H861   0.990       .  S
O830        H875   0.990       .  S
O832        H858   0.964       .  S
O833       Zr843   2.382       .  S
O834       Zr843   2.385   1_556  S
O834        H859   0.966       .  S
C835       C2179   1.466       .  S
C836       C2016   1.468       .  S
C837       C1184   1.485       .  S
O838        H874   0.990       .  S
O839        C841   1.288       .  A
O840        C841   1.280   1_556  A
C841       C2083   1.469       .  S
O842       Zr843   2.436       .  S
O842        H871   0.990       .  S
Zr843       O846   2.435       .  S
Zr843       O847   2.438   1_554  S
Zr843       O848   2.395   1_554  S
O844        C849   1.283       .  A
O845        H862   0.990       .  S
O845        H877   0.990       .  S
O846        H863   0.990       .  S
O847        H867   0.991       .  S
O847        H876   0.990       .  S
O848        C849   1.277       .  A
C849       C1552   1.465       .  S
O850        H869   0.991       .  S
O850        H873   0.990       .  S
O851        H865   0.990       .  S
O851        H872   0.990       .  S
O852        C856   1.284       .  A
O853        C856   1.288       .  A
O854        H864   0.990       .  S
O855        H868   0.990       .  S
C856       C2371   1.483       .  S
Zr879       O880   2.442       .  S
Zr879       O881   2.443       .  S
Zr879       O882   2.415       .  S
Zr879       O885   2.404       .  S
Zr879       O887   2.373   1_655  S
Zr879       O888   2.377       .  S
Zr879       O889   2.407       .  S
Zr879       O890   2.406       .  S
O880        H936   0.991       .  S
O880        H944   0.990       .  S
O881        C901   1.285       .  A
O882        C903   1.280   1_655  A
O883       Zr893   2.453       .  S
O883        C902   1.287       .  A
O884       Zr892   2.444       .  S
O884        C903   1.285       .  A
O885        C902   1.280       .  A
O886       Zr894   2.450   1_655  S
O886        C901   1.285       .  A
O887       Zr892   2.405       .  S
O887       Zr894   2.380       .  S
O888       Zr893   2.402       .  S
O888       Zr894   2.370   1_655  S
O888        H923   0.965       .  S
O889       Zr892   2.402   1_655  S
O889       Zr909   2.402       .  S
O889        H926   0.965       .  S
O890       Zr893   2.390       .  S
O890       Zr909   2.394       .  S
Zr891       O916   2.443       .  S
Zr891       O910   2.443       .  S
Zr891       O918   2.418       .  S
Zr891       O906   2.416       .  S
Zr891       O897   2.412   1_455  S
Zr891       O898   2.408       .  S
Zr891       O899   2.374       .  S
Zr891       O900   2.377   1_455  S
Zr892       O911   2.436       .  S
Zr892       O904   2.434       .  S
Zr892       O905   2.457       .  S
Zr892       O898   2.399       .  S
Zr892       O899   2.399       .  S
Zr893       O895   2.435       .  S
Zr893       O917   2.435       .  S
Zr893       O919   2.449       .  S
Zr893       O897   2.402       .  S
Zr893       O900   2.395       .  S
Zr894       O920   2.436   1_455  S
Zr894       O921   2.437       .  S
Zr894       O896   2.440       .  S
Zr894       O897   2.411   1_455  S
Zr894       O898   2.397       .  S
O895        H932   0.990       .  S
O896        H927   0.990       .  S
O896        H941   0.990       .  S
O898        H924   0.965       .  S
O899       Zr909   2.386   1_455  S
O900       Zr909   2.374       .  S
O900        H925   0.966       .  S
C901       C1683   1.489       .  S
C902       C2336   1.467       .  S
C903       C1840   1.469       .  S
O904        H940   0.990       .  S
O905        C907   1.288       .  A
O906        C907   1.281       .  A
C907       C1168   1.467       .  S
O908       Zr909   2.435       .  S
O908        H937   0.990       .  S
Zr909       O912   2.435   1_655  S
Zr909       O913   2.437       .  S
Zr909       O914   2.432   1_655  S
O910        C915   1.284       .  A
O911        H928   0.990       .  S
O911        H943   0.990       .  S
O912        H929   0.990       .  S
O913        H933   0.990       .  S
O913        H942   0.989       .  S
O914        C915   1.281       .  A
C915       C1955   1.474       .  S
O916        H935   0.991       .  S
O916        H939   0.990       .  S
O917        H931   0.990       .  S
O917        H938   0.990       .  S
O918        C922   1.281   1_455  A
O919        C922   1.286       .  A
O920        H930   0.990       .  S
O921        H934   0.990       .  S
C922       C1475   1.475       .  S
C945       C1152   1.529       .  S
C945       C1171   1.528       .  S
C945       C1312   1.534       .  S
C945       C1523   1.521       .  S
Zr946       O947   2.444       .  S
Zr946       O948   2.436       .  S
Zr946       O949   2.428       .  S
Zr946       O952   2.398       .  S
Zr946       O954   2.373       .  S
Zr946       O955   2.383       .  S
Zr946       O956   2.402       .  S
Zr946       O957   2.399       .  S
O947       H1003   0.990       .  S
O947       H1011   0.991       .  S
O948        C968   1.281       .  A
O949        C970   1.282       .  A
O950       Zr960   2.468       .  S
O950        C969   1.289       .  A
O951       Zr959   2.476       .  S
O951        C970   1.291       .  A
O952        C969   1.279       .  A
O953       Zr961   2.402       .  S
O953        C968   1.277       .  A
O954       Zr959   2.410       .  S
O954       Zr961   2.387       .  S
O955       Zr960   2.408       .  S
O955       Zr961   2.373       .  S
O955        H990   0.966       .  S
O956       Zr959   2.403       .  S
O956       Zr976   2.395       .  S
O956        H993   0.968       .  S
O957       Zr960   2.399       .  S
O957       Zr976   2.385       .  S
Zr958       O983   2.445       .  S
Zr958       O977   2.428       .  S
Zr958       O985   2.426       .  S
Zr958       O973   2.409       .  S
Zr958       O964   2.392       .  S
Zr958       O965   2.408       .  S
Zr958       O966   2.377       .  S
Zr958       O967   2.384       .  S
Zr959       O978   2.437       .  S
Zr959       O971   2.433       .  S
Zr959       O972   2.470       .  S
Zr959       O965   2.408       .  S
Zr959       O966   2.399       .  S
Zr960       O962   2.434       .  S
Zr960       O984   2.436       .  S
Zr960       O986   2.480       .  S
Zr960       O964   2.396       .  S
Zr960       O967   2.405       .  S
Zr961       O987   2.435       .  S
Zr961       O988   2.435       .  S
Zr961       O963   2.437       .  S
Zr961       O964   2.386       .  S
Zr961       O965   2.380       .  S
O962        H999   0.990       .  S
O963        H994   0.990       .  S
O963       H1008   0.990       .  S
O965        H991   0.964       .  S
O966       Zr976   2.382       .  S
O967       Zr976   2.391       .  S
O967        H992   0.965       .  S
C968       C1216   1.463       .  S
C969       C1155   1.474       .  S
C970       C1136   1.491       .  S
O971       H1007   0.990       .  S
O972        C974   1.290       .  A
O973        C974   1.279       .  A
C974       C2320   1.469       .  S
O975       Zr976   2.437       .  S
O975       H1004   0.990       .  S
Zr976       O979   2.434       .  S
Zr976       O980   2.440       .  S
Zr976       O981   2.408       .  S
O977        C982   1.282       .  A
O978        H995   0.990       .  S
O978       H1010   0.990       .  S
O979        H996   0.990       .  S
O980       H1000   0.990       .  S
O980       H1009   0.990       .  S
O981        C982   1.277       .  A
C982       C1120   1.463       .  S
O983       H1002   0.990       .  S
O983       H1006   0.991       .  S
O984        H998   0.990       .  S
O984       H1005   0.990       .  S
O985        C989   1.281       .  A
O986        C989   1.292       .  A
O987        H997   0.990       .  S
O988       H1001   0.990       .  S
C989       C2387   1.484       .  S
C1012      C1139   1.540       .  S
C1012      C1187   1.534       .  S
C1012      C1299   1.542       .  S
C1012      C1795   1.541       .  S
C1013      C1104   1.543   1_655  S
C1013      C1203   1.534       .  S
C1013      C1379   1.524       .  S
C1013      C2611   1.538       .  S
Zr1014     O1015   2.445       .  S
Zr1014     O1016   2.416       .  S
Zr1014     O1017   2.433       .  S
Zr1014     O1020   2.426       .  S
Zr1014     O1022   2.379       .  S
Zr1014     O1023   2.388       .  S
Zr1014     O1024   2.403       .  S
Zr1014     O1025   2.400       .  S
O1015      H1071   0.991       .  S
O1015      H1079   0.990       .  S
O1016      C1036   1.279       .  A
O1017      C1038   1.283       .  A
O1018     Zr1028   2.473       .  S
O1018      C1037   1.291       .  A
O1019     Zr1027   2.449       .  S
O1019      C1038   1.286       .  A
O1020      C1037   1.283       .  A
O1021     Zr1029   2.399       .  S
O1021      C1036   1.276       .  A
O1022     Zr1027   2.403       .  S
O1022     Zr1029   2.380       .  S
O1023     Zr1028   2.397       .  S
O1023     Zr1029   2.381       .  S
O1023      H1058   0.966       .  S
O1024     Zr1027   2.419       .  S
O1024     Zr1044   2.383       .  S
O1024      H1061   0.964       .  S
O1025     Zr1028   2.408       .  S
O1025     Zr1044   2.396       .  S
Zr1026     O1051   2.442       .  S
Zr1026     O1045   2.436       .  S
Zr1026     O1053   2.396       .  S
Zr1026     O1041   2.419       .  S
Zr1026     O1032   2.403       .  S
Zr1026     O1033   2.395       .  S
Zr1026     O1034   2.372       .  S
Zr1026     O1035   2.380       .  S
Zr1027     O1046   2.435       .  S
Zr1027     O1039   2.436       .  S
Zr1027     O1040   2.473       .  S
Zr1027     O1033   2.397       .  S
Zr1027     O1034   2.404       .  S
Zr1028     O1030   2.436       .  S
Zr1028     O1052   2.435       .  S
Zr1028     O1054   2.487       .  S
Zr1028     O1032   2.391       .  S
Zr1028     O1035   2.400       .  S
Zr1029     O1055   2.434       .  S
Zr1029     O1056   2.435       .  S
Zr1029     O1031   2.437       .  S
Zr1029     O1032   2.389       .  S
Zr1029     O1033   2.379       .  S
O1030      H1067   0.990       .  S
O1031      H1062   0.990       .  S
O1031      H1076   0.990       .  S
O1033      H1059   0.965       .  S
O1034     Zr1044   2.385       .  S
O1035     Zr1044   2.375       .  S
O1035      H1060   0.965       .  S
C1036      C1984   1.453       .  S
C1037      C1107   1.485       .  S
C1038      C1923   1.470       .  S
O1039      H1075   0.990       .  S
O1040      C1042   1.290       .  A
O1041      C1042   1.283       .  A
C1042      C1088   1.483       .  S
O1043     Zr1044   2.436       .  S
O1043      H1072   0.990       .  S
Zr1044     O1047   2.437       .  S
Zr1044     O1048   2.440       .  S
Zr1044     O1049   2.413       .  S
O1045      C1050   1.284       .  A
O1046      H1063   0.990       .  S
O1046      H1078   0.990       .  S
O1047      H1064   0.990       .  S
O1048      H1068   0.990       .  S
O1048      H1077   0.989       .  S
O1049      C1050   1.279       .  A
C1050      C1731   1.469       .  S
O1051      H1070   0.991       .  S
O1051      H1074   0.990       .  S
O1052      H1066   0.989       .  S
O1052      H1073   0.990       .  S
O1053      C1057   1.279       .  A
O1054      C1057   1.294       .  A
O1055      H1065   0.989       .  S
O1056      H1069   0.990       .  S
C1057      C2099   1.482       .  S
C1080      C1091   1.541       .  S
C1080      C1123   1.519       .  S
C1080      C1235   1.536       .  S
C1080      C2560   1.533       .  S
C1081      C1086   1.378       .  A
C1081      C1082   1.418       .  A
C1081      O1087   1.332       .  A
C1082      C1083   1.418       .  A
C1082      H1093   1.082       .  S
C1083      C1092   1.377       .  A
C1083      C1084   1.376       .  A
C1084      C1085   1.394       .  A
C1084      O1090   1.309       .  A
C1085      C1086   1.393       .  A
C1085      H1094   1.083       .  S
C1086      C1089   1.350       .  A
O1087      C1088   1.339       .  A
C1088      C1089   1.388       .  A
C1089      H1095   1.083       .  S
O1090      C1091   1.328       .  A
C1091      C1092   1.407       .  A
C1092      H1096   1.082       .  S
C1097      C1102   1.377       .  A
C1097      C1098   1.414       .  A
C1097      O1103   1.324       .  A
C1098      C1099   1.412       .  A
C1098      H1109   1.082       .  S
C1099      C1108   1.377       .  A
C1099      C1100   1.379       .  A
C1100      C1101   1.404       .  A
C1100      O1106   1.317       .  A
C1101      C1102   1.402       .  A
C1101      H1110   1.082       .  S
C1102      C1105   1.364       .  A
O1103      C1104   1.340       .  A
C1104      C1105   1.395       .  A
C1105      H1111   1.082       .  S
O1106      C1107   1.332       .  A
C1107      C1108   1.398       .  A
C1108      H1112   1.082       .  S
C1113      C1118   1.380       .  A
C1113      C1114   1.406       .  A
C1113      O1119   1.319       .  A
C1114      C1115   1.404       .  A
C1114      H1125   1.082       .  S
C1115      C1124   1.365       .  A
C1115      C1116   1.379       .  A
C1116      C1117   1.396       .  A
C1116      O1122   1.309       .  A
C1117      C1118   1.394       .  A
C1117      H1126   1.082       .  S
C1118      C1121   1.354       .  A
O1119      C1120   1.332       .  A
C1120      C1121   1.387       .  A
C1121      H1127   1.083       .  S
O1122      C1123   1.329       .  A
C1123      C1124   1.396       .  A
C1124      H1128   1.082       .  S
C1129      C1134   1.379       .  A
C1129      C1130   1.412       .  A
C1129      O1135   1.331       .  A
C1130      C1131   1.413       .  A
C1130      H1141   1.082       .  S
C1131      C1140   1.368       .  A
C1131      C1132   1.378       .  A
C1132      C1133   1.403       .  A
C1132      O1138   1.322       .  A
C1133      C1134   1.405       .  A
C1133      H1142   1.082       .  S
C1134      C1137   1.358       .  A
O1135      C1136   1.337       .  A
C1136      C1137   1.395       .  A
C1137      H1143   1.082       .  S
O1138      C1139   1.334       .  A
C1139      C1140   1.402       .  A
C1140      H1144   1.081       .  S
C1145      C1150   1.379       .  A
C1145      C1146   1.395       .  A
C1145      O1151   1.317       .  A
C1146      C1147   1.398       .  A
C1146      H1157   1.082       .  S
C1147      C1156   1.348       .  A
C1147      C1148   1.380       .  A
C1148      C1149   1.407       .  A
C1148      O1154   1.328       .  A
C1149      C1150   1.410       .  A
C1149      H1158   1.082       .  S
C1150      C1153   1.360       .  A
O1151      C1152   1.330       .  A
C1152      C1153   1.405       .  A
C1153      H1159   1.081       .  S
O1154      C1155   1.334       .  A
C1155      C1156   1.391       .  A
C1156      H1160   1.083       .  S
C1161      C1166   1.380       .  A
C1161      C1162   1.407       .  A
C1161      O1167   1.321       .  A
C1162      C1163   1.405       .  A
C1162      H1173   1.082       .  S
C1163      C1172   1.367       .  A
C1163      C1164   1.377       .  A
C1164      C1165   1.403       .  A
C1164      O1170   1.316       .  A
C1165      C1166   1.402       .  A
C1165      H1174   1.082       .  S
C1166      C1169   1.362       .  A
O1167      C1168   1.332       .  A
C1168      C1169   1.392       .  A
C1169      H1175   1.083       .  S
O1170      C1171   1.334       .  A
C1171      C1172   1.398       .  A
C1172      H1176   1.082       .  S
C1177      C1182   1.380       .  A
C1177      C1178   1.410       .  A
C1177      O1183   1.328       .  A
C1178      C1179   1.410       .  A
C1178      H1189   1.082       .  S
C1179      C1188   1.366       .  A
C1179      C1180   1.379       .  A
C1180      C1181   1.402       .  A
C1180      O1186   1.319       .  A
C1181      C1182   1.403       .  A
C1181      H1190   1.082       .  S
C1182      C1185   1.358       .  A
O1183      C1184   1.335       .  A
C1184      C1185   1.394       .  A
C1185      H1191   1.083       .  S
O1186      C1187   1.333       .  A
C1187      C1188   1.399       .  A
C1188      H1192   1.082       .  S
C1193      C1198   1.379   1_455  A
C1193      C1194   1.404       .  A
C1193      O1199   1.315       .  A
C1194      C1195   1.401       .  A
C1194      H1205   1.082       .  S
C1195      C1204   1.363       .  A
C1195      C1196   1.376   1_455  A
C1196      C1197   1.408       .  A
C1196      O1202   1.318       .  A
C1197      C1198   1.406       .  A
C1197      H1206   1.082       .  S
C1198      C1201   1.371       .  A
O1199      C1200   1.333       .  A
C1200      C1201   1.393   1_455  A
C1201      H1207   1.082       .  S
O1202      C1203   1.336       .  A
C1203      C1204   1.398   1_655  A
C1204      H1208   1.080       .  S
C1209      C1214   1.380       .  A
C1209      C1210   1.406       .  A
C1209      O1215   1.321       .  A
C1210      C1211   1.406       .  A
C1210      H1221   1.082       .  S
C1211      C1220   1.363       .  A
C1211      C1212   1.380       .  A
C1212      C1213   1.397       .  A
C1212      O1218   1.313       .  A
C1213      C1214   1.396       .  A
C1213      H1222   1.082       .  S
C1214      C1217   1.354       .  A
O1215      C1216   1.331       .  A
C1216      C1217   1.388       .  A
C1217      H1223   1.083       .  S
O1218      C1219   1.330       .  A
C1219      C1220   1.399       .  A
C1220      H1224   1.083       .  S
C1225      C1230   1.380       .  A
C1225      C1226   1.407       .  A
C1225      O1231   1.320       .  A
C1226      C1227   1.405       .  A
C1226      H1237   1.082       .  S
C1227      C1236   1.365       .  A
C1227      C1228   1.376       .  A
C1228      C1229   1.398       .  A
C1228      O1234   1.310       .  A
C1229      C1230   1.397       .  A
C1229      H1238   1.083       .  S
C1230      C1233   1.357       .  A
O1231      C1232   1.332       .  A
C1232      C1233   1.389       .  A
C1233      H1239   1.083       .  S
O1234      C1235   1.331       .  A
C1235      C1236   1.400       .  A
C1236      H1240   1.081       .  S
C1241      C1246   1.380       .  A
C1241      C1242   1.404       .  A
C1241      O1247   1.321       .  A
C1242      C1243   1.404       .  A
C1242      H1253   1.082       .  S
C1243      C1252   1.361       .  A
C1243      C1244   1.381       .  A
C1244      C1245   1.399       .  A
C1244      O1250   1.317       .  A
C1245      C1246   1.399       .  A
C1245      H1254   1.082       .  S
C1246      C1249   1.353       .  A
O1247      C1248   1.333       .  A
C1248      C1249   1.395       .  A
C1249      H1255   1.083       .  S
O1250      C1251   1.328       .  A
C1251      C1252   1.392       .  A
C1252      H1256   1.083       .  S
C1257      C1262   1.379       .  A
C1257      C1258   1.404       .  A
C1257      O1263   1.319       .  A
C1258      C1259   1.403       .  A
C1258      H1269   1.082       .  S
C1259      C1268   1.363       .  A
C1259      C1260   1.381   1_554  A
C1260      C1261   1.398       .  A
C1260      O1266   1.313       .  A
C1261      C1262   1.397   1_556  A
C1261      H1270   1.083       .  S
C1262      C1265   1.353       .  A
O1263      C1264   1.333       .  A
C1264      C1265   1.395       .  A
C1265      H1271   1.083   1_554  S
O1266      C1267   1.328       .  A
C1267      C1268   1.391   1_556  A
C1268      H1272   1.082       .  S
C1273      C1278   1.376   1_545  A
C1273      C1274   1.416       .  A
C1273      O1279   1.330       .  A
C1274      C1275   1.416       .  A
C1274      H1285   1.082       .  S
C1275      C1284   1.379       .  A
C1275      C1276   1.379   1_545  A
C1276      C1277   1.399       .  A
C1276      O1282   1.314       .  A
C1277      C1278   1.398       .  A
C1277      H1286   1.083       .  S
C1278      C1281   1.355       .  A
O1279      C1280   1.340       .  A
C1280      C1281   1.398   1_545  A
C1281      H1287   1.082       .  S
O1282      C1283   1.330   1_565  A
C1283      C1284   1.399       .  A
C1284      H1288   1.082       .  S
C1289      C1294   1.379       .  A
C1289      C1290   1.407       .  A
C1289      O1295   1.319       .  A
C1290      C1291   1.405       .  A
C1290      H1301   1.082       .  S
C1291      C1300   1.369       .  A
C1291      C1292   1.377       .  A
C1292      C1293   1.410       .  A
C1292      O1298   1.320       .  A
C1293      C1294   1.408       .  A
C1293      H1302   1.082       .  S
C1294      C1297   1.373       .  A
O1295      C1296   1.332       .  A
C1296      C1297   1.395       .  A
C1297      H1303   1.082       .  S
O1298      C1299   1.338       .  A
C1299      C1300   1.398       .  A
C1300      H1304   1.082       .  S
C1305      C1310   1.377       .  A
C1305      C1306   1.411       .  A
C1305      O1311   1.324       .  A
C1306      C1307   1.410       .  A
C1306      H1317   1.082       .  S
C1307      C1316   1.373       .  A
C1307      C1308   1.379       .  A
C1308      C1309   1.406       .  A
C1308      O1314   1.319       .  A
C1309      C1310   1.404       .  A
C1309      H1318   1.082       .  S
C1310      C1313   1.364       .  A
O1311      C1312   1.337       .  A
C1312      C1313   1.398       .  A
C1313      H1319   1.082       .  S
O1314      C1315   1.333       .  A
C1315      C1316   1.395       .  A
C1316      H1320   1.082       .  S
C1321      C1326   1.380       .  A
C1321      C1322   1.395       .  A
C1321      O1327   1.312       .  A
C1322      C1323   1.395       .  A
C1322      H1333   1.083       .  S
C1323      C1332   1.350       .  A
C1323      C1324   1.381       .  A
C1324      C1325   1.406       .  A
C1324      O1330   1.323       .  A
C1325      C1326   1.406       .  A
C1325      H1334   1.082       .  S
C1326      C1329   1.362       .  A
O1327      C1328   1.329       .  A
C1328      C1329   1.398       .  A
C1329      H1335   1.082       .  S
O1330      C1331   1.332       .  A
C1331      C1332   1.388       .  A
C1332      H1336   1.083       .  S
C1337      C1342   1.378       .  A
C1337      C1338   1.418       .  A
C1337      O1343   1.332       .  A
C1338      C1339   1.417       .  A
C1338      H1349   1.082       .  S
C1339      C1348   1.379       .  A
C1339      C1340   1.376       .  A
C1340      C1341   1.403       .  A
C1340      O1346   1.317       .  A
C1341      C1342   1.402       .  A
C1341      H1350   1.083       .  S
C1342      C1345   1.360       .  A
O1343      C1344   1.339       .  A
C1344      C1345   1.393       .  A
C1345      H1351   1.083       .  S
O1346      C1347   1.334       .  A
C1347      C1348   1.404       .  A
C1348      H1352   1.082       .  S
C1353      C1358   1.381       .  A
C1353      C1354   1.400       .  A
C1353      O1359   1.316       .  A
C1354      C1355   1.400       .  A
C1354      H1365   1.082       .  S
C1355      C1364   1.355       .  A
C1355      C1356   1.378       .  A
C1356      C1357   1.402       .  A
C1356      O1362   1.317       .  A
C1357      C1358   1.402       .  A
C1357      H1366   1.082       .  S
C1358      C1361   1.360       .  A
O1359      C1360   1.328       .  A
C1360      C1361   1.388       .  A
C1361      H1367   1.082       .  S
O1362      C1363   1.333       .  A
C1363      C1364   1.398       .  A
C1364      H1368   1.082       .  S
C1369      C1374   1.381       .  A
C1369      C1370   1.405   1_655  A
C1369      O1375   1.324   1_655  A
C1370      C1371   1.406       .  A
C1370      H1381   1.082       .  S
C1371      C1380   1.361       .  A
C1371      C1372   1.380   1_455  A
C1372      C1373   1.402       .  A
C1372      O1378   1.321       .  A
C1373      C1374   1.404       .  A
C1373      H1382   1.082       .  S
C1374      C1377   1.358       .  A
O1375      C1376   1.331   1_455  A
C1376      C1377   1.393       .  A
C1377      H1383   1.083       .  S
O1378      C1379   1.332       .  A
C1379      C1380   1.397   1_655  A
C1380      H1384   1.082       .  S
C1385      C1390   1.378   1_556  A
C1385      C1386   1.404       .  A
C1385      O1391   1.318       .  A
C1386      C1387   1.404       .  A
C1386      H1397   1.082       .  S
C1387      C1396   1.364       .  A
C1387      C1388   1.380   1_556  A
C1388      C1389   1.405       .  A
C1388      O1394   1.320       .  A
C1389      C1390   1.404       .  A
C1389      H1398   1.082       .  S
C1390      C1393   1.363       .  A
O1391      C1392   1.333   1_556  A
C1392      C1393   1.397       .  A
C1393      H1399   1.082       .  S
O1394      C1395   1.332       .  A
C1395      C1396   1.393   1_554  A
C1396      H1400   1.082       .  S
C1401      C1406   1.379   1_565  A
C1401      C1402   1.415       .  A
C1401      O1407   1.330       .  A
C1402      C1403   1.414       .  A
C1402      H1413   1.082       .  S
C1403      C1412   1.373       .  A
C1403      C1404   1.377   1_565  A
C1404      C1405   1.401       .  A
C1404      O1410   1.316       .  A
C1405      C1406   1.400       .  A
C1405      H1414   1.082       .  S
C1406      C1409   1.358       .  A
O1407      C1408   1.338       .  A
C1408      C1409   1.391   1_565  A
C1409      H1415   1.083       .  S
O1410      C1411   1.333       .  A
C1411      C1412   1.404   1_545  A
C1412      H1416   1.082       .  S
C1417      C1422   1.379   1_655  A
C1417      C1418   1.398       .  A
C1417      O1423   1.315       .  A
C1418      C1419   1.399       .  A
C1418      H1429   1.083       .  S
C1419      C1428   1.355       .  A
C1419      C1420   1.381       .  A
C1420      C1421   1.409   1_655  A
C1420      O1426   1.325   1_655  A
C1421      C1422   1.408       .  A
C1421      H1430   1.082       .  S
C1422      C1425   1.366       .  A
O1423      C1424   1.330       .  A
C1424      C1425   1.397   1_655  A
C1425      H1431   1.082       .  S
O1426      C1427   1.334   1_455  A
C1427      C1428   1.390       .  A
C1428      H1432   1.083       .  S
C1433      C1438   1.378       .  A
C1433      C1434   1.397       .  A
C1433      O1439   1.312       .  A
C1434      C1435   1.396       .  A
C1434      H1445   1.082       .  S
C1435      C1444   1.353       .  A
C1435      C1436   1.380       .  A
C1436      C1437   1.411       .  A
C1436      O1442   1.325       .  A
C1437      C1438   1.410       .  A
C1437      H1446   1.082       .  S
C1438      C1441   1.369       .  A
O1439      C1440   1.330       .  A
C1440      C1441   1.400       .  A
C1441      H1447   1.082       .  S
O1442      C1443   1.335       .  A
C1443      C1444   1.389       .  A
C1444      H1448   1.083       .  S
C1449      C1454   1.378   1_455  A
C1449      C1450   1.399       .  A
C1449      O1455   1.314       .  A
C1450      C1451   1.399       .  A
C1450      H1461   1.083       .  S
C1451      C1460   1.354       .  A
C1451      C1452   1.380   1_455  A
C1452      C1453   1.408       .  A
C1452      O1458   1.325       .  A
C1453      C1454   1.408       .  A
C1453      H1462   1.082       .  S
C1454      C1457   1.366       .  A
O1455      C1456   1.331   1_455  A
C1456      C1457   1.398       .  A
C1457      H1463   1.082       .  S
O1458      C1459   1.333   1_655  A
C1459      C1460   1.393       .  A
C1460      H1464   1.083       .  S
C1465      C1470   1.379   1_455  A
C1465      C1466   1.400       .  A
C1465      O1471   1.316       .  A
C1466      C1467   1.400       .  A
C1466      H1477   1.082       .  S
C1467      C1476   1.356       .  A
C1467      C1468   1.380   1_455  A
C1468      C1469   1.407       .  A
C1468      O1474   1.323       .  A
C1469      C1470   1.407       .  A
C1469      H1478   1.082       .  S
C1470      C1473   1.364       .  A
O1471      C1472   1.331   1_455  A
C1472      C1473   1.399       .  A
C1473      H1479   1.083       .  S
O1474      C1475   1.333       .  A
C1475      C1476   1.392   1_655  A
C1476      H1480   1.083       .  S
C1481      C1486   1.377       .  A
C1481      C1482   1.402   1_655  A
C1481      O1487   1.319   1_655  A
C1482      C1483   1.403   1_455  A
C1482      H1493   1.082       .  S
C1483      C1492   1.358   1_655  A
C1483      C1484   1.380       .  A
C1484      C1485   1.407       .  A
C1484      O1490   1.325       .  A
C1485      C1486   1.407       .  A
C1485      H1494   1.082       .  S
C1486      C1489   1.363       .  A
O1487      C1488   1.334   1_455  A
C1488      C1489   1.401       .  A
C1489      H1495   1.080       .  S
O1490      C1491   1.333       .  A
C1491      C1492   1.393   1_655  A
C1492      H1496   1.083       .  S
C1497      C1502   1.380       .  A
C1497      C1498   1.400       .  A
C1497      O1503   1.318       .  A
C1498      C1499   1.400       .  A
C1498      H1509   1.082       .  S
C1499      C1508   1.355       .  A
C1499      C1500   1.378       .  A
C1500      C1501   1.411       .  A
C1500      O1506   1.327       .  A
C1501      C1502   1.412       .  A
C1501      H1510   1.082       .  S
C1502      C1505   1.370       .  A
O1503      C1504   1.329       .  A
C1504      C1505   1.395       .  A
C1505      H1511   1.082       .  S
O1506      C1507   1.338       .  A
C1507      C1508   1.396       .  A
C1508      H1512   1.082       .  S
C1513      C1518   1.380       .  A
C1513      C1514   1.402       .  A
C1513      O1519   1.316       .  A
C1514      C1515   1.400       .  A
C1514      H1525   1.082       .  S
C1515      C1524   1.359       .  A
C1515      C1516   1.378       .  A
C1516      C1517   1.402       .  A
C1516      O1522   1.314       .  A
C1517      C1518   1.400       .  A
C1517      H1526   1.082       .  S
C1518      C1521   1.361       .  A
O1519      C1520   1.330       .  A
C1520      C1521   1.391       .  A
C1521      H1527   1.083       .  S
O1522      C1523   1.332       .  A
C1523      C1524   1.398       .  A
C1524      H1528   1.081       .  S
C1529      C1534   1.380       .  A
C1529      C1530   1.407       .  A
C1529      O1535   1.319       .  A
C1530      C1531   1.405       .  A
C1530      H1541   1.082       .  S
C1531      C1540   1.366       .  A
C1531      C1532   1.379       .  A
C1532      C1533   1.396       .  A
C1532      O1538   1.309       .  A
C1533      C1534   1.394       .  A
C1533      H1542   1.082       .  S
C1534      C1537   1.355       .  A
O1535      C1536   1.333       .  A
C1536      C1537   1.386       .  A
C1537      H1543   1.083       .  S
O1538      C1539   1.330       .  A
C1539      C1540   1.398       .  A
C1540      H1544   1.082       .  S
C1545      C1550   1.381       .  A
C1545      C1546   1.403       .  A
C1545      O1551   1.320       .  A
C1546      C1547   1.403       .  A
C1546      H1557   1.082       .  S
C1547      C1556   1.360       .  A
C1547      C1548   1.378       .  A
C1548      C1549   1.399       .  A
C1548      O1554   1.315       .  A
C1549      C1550   1.399       .  A
C1549      H1558   1.082       .  S
C1550      C1553   1.354       .  A
O1551      C1552   1.330       .  A
C1552      C1553   1.391       .  A
C1553      H1559   1.083       .  S
O1554      C1555   1.332       .  A
C1555      C1556   1.399       .  A
C1556      H1560   1.081       .  S
C1561      C1566   1.380       .  A
C1561      C1562   1.408       .  A
C1561      O1567   1.325       .  A
C1562      C1563   1.408       .  A
C1562      H1573   1.082       .  S
C1563      C1572   1.364       .  A
C1563      C1564   1.380       .  A
C1564      C1565   1.396       .  A
C1564      O1570   1.315       .  A
C1565      C1566   1.397       .  A
C1565      H1574   1.082       .  S
C1566      C1569   1.352       .  A
O1567      C1568   1.333       .  A
C1568      C1569   1.390       .  A
C1569      H1575   1.083       .  S
O1570      C1571   1.329       .  A
C1571      C1572   1.399       .  A
C1572      H1576   1.082       .  S
C1577      C1582   1.380       .  A
C1577      C1578   1.400       .  A
C1577      O1583   1.318       .  A
C1578      C1579   1.400       .  A
C1578      H1589   1.082       .  S
C1579      C1588   1.355       .  A
C1579      C1580   1.378       .  A
C1580      C1581   1.409       .  A
C1580      O1586   1.325       .  A
C1581      C1582   1.409       .  A
C1581      H1590   1.082       .  S
C1582      C1585   1.367       .  A
O1583      C1584   1.329       .  A
C1584      C1585   1.394       .  A
C1585      H1591   1.082       .  S
O1586      C1587   1.337       .  A
C1587      C1588   1.396       .  A
C1588      H1592   1.082       .  S
C1593      C1598   1.376   1_545  A
C1593      C1594   1.407       .  A
C1593      O1599   1.323       .  A
C1594      C1595   1.408       .  A
C1594      H1605   1.082       .  S
C1595      C1604   1.366       .  A
C1595      C1596   1.378       .  A
C1596      C1597   1.415   1_545  A
C1596      O1602   1.332   1_545  A
C1597      C1598   1.415       .  A
C1597      H1606   1.082       .  S
C1598      C1601   1.373       .  A
O1599      C1600   1.336       .  A
C1600      C1601   1.403   1_545  A
C1601      H1607   1.080       .  S
O1602      C1603   1.338   1_565  A
C1603      C1604   1.397       .  A
C1604      H1608   1.083       .  S
C1609      C1614   1.379   1_565  A
C1609      C1610   1.403       .  A
C1609      O1615   1.318       .  A
C1610      C1611   1.402       .  A
C1610      H1621   1.082       .  S
C1611      C1620   1.361       .  A
C1611      C1612   1.376   1_565  A
C1612      C1613   1.413       .  A
C1612      O1618   1.326       .  A
C1613      C1614   1.412       .  A
C1613      H1622   1.082       .  S
C1614      C1617   1.374       .  A
O1615      C1616   1.331   1_565  A
C1616      C1617   1.397       .  A
C1617      H1623   1.082       .  S
O1618      C1619   1.340       .  A
C1619      C1620   1.399   1_545  A
C1620      H1624   1.081       .  S
C1625      C1630   1.380       .  A
C1625      C1626   1.406       .  A
C1625      O1631   1.319       .  A
C1626      C1627   1.405       .  A
C1626      H1637   1.082       .  S
C1627      C1636   1.367       .  A
C1627      C1628   1.378       .  A
C1628      C1629   1.405       .  A
C1628      O1634   1.316       .  A
C1629      C1630   1.403       .  A
C1629      H1638   1.082       .  S
C1630      C1633   1.365       .  A
O1631      C1632   1.333       .  A
C1632      C1633   1.391       .  A
C1633      H1639   1.082       .  S
O1634      C1635   1.336       .  A
C1635      C1636   1.398       .  A
C1636      H1640   1.082       .  S
C1641      C1646   1.379       .  A
C1641      C1642   1.405       .  A
C1641      O1647   1.320       .  A
C1642      C1643   1.404       .  A
C1642      H1653   1.082       .  S
C1643      C1652   1.364       .  A
C1643      C1644   1.381       .  A
C1644      C1645   1.400       .  A
C1644      O1650   1.316       .  A
C1645      C1646   1.399       .  A
C1645      H1654   1.082       .  S
C1646      C1649   1.356       .  A
O1647      C1648   1.334       .  A
C1648      C1649   1.394       .  A
C1649      H1655   1.083       .  S
O1650      C1651   1.329       .  A
C1651      C1652   1.392       .  A
C1652      H1656   1.082       .  S
C1657      C1662   1.378       .  A
C1657      C1658   1.407       .  A
C1657      O1663   1.323       .  A
C1658      C1659   1.408       .  A
C1658      H1669   1.082       .  S
C1659      C1668   1.365       .  A
C1659      C1660   1.381       .  A
C1660      C1661   1.401       .  A
C1660      O1666   1.319       .  A
C1661      C1662   1.401       .  A
C1661      H1670   1.082       .  S
C1662      C1665   1.356       .  A
O1663      C1664   1.336       .  A
C1664      C1665   1.397       .  A
C1665      H1671   1.082       .  S
O1666      C1667   1.330       .  A
C1667      C1668   1.394       .  A
C1668      H1672   1.083       .  S
C1673      C1678   1.378       .  A
C1673      C1674   1.406       .  A
C1673      O1679   1.321       .  A
C1674      C1675   1.405       .  A
C1674      H1685   1.082       .  S
C1675      C1684   1.365       .  A
C1675      C1676   1.379       .  A
C1676      C1677   1.411       .  A
C1676      O1682   1.326       .  A
C1677      C1678   1.410       .  A
C1677      H1686   1.082       .  S
C1678      C1681   1.370       .  A
O1679      C1680   1.335       .  A
C1680      C1681   1.400       .  A
C1681      H1687   1.082       .  S
O1682      C1683   1.336       .  A
C1683      C1684   1.395       .  A
C1684      H1688   1.083       .  S
C1689      C1694   1.378       .  A
C1689      C1690   1.414       .  A
C1689      O1695   1.331       .  A
C1690      C1691   1.414       .  A
C1690      H1701   1.082       .  S
C1691      C1700   1.372       .  A
C1691      C1692   1.378       .  A
C1692      C1693   1.407       .  A
C1692      O1698   1.323       .  A
C1693      C1694   1.407       .  A
C1693      H1702   1.082       .  S
C1694      C1697   1.363       .  A
O1695      C1696   1.337       .  A
C1696      C1697   1.396       .  A
C1697      H1703   1.083       .  S
O1698      C1699   1.336       .  A
C1699      C1700   1.402       .  A
C1700      H1704   1.082       .  S
C1705      C1710   1.380       .  A
C1705      C1706   1.404       .  A
C1705      O1711   1.318       .  A
C1706      C1707   1.402       .  A
C1706      H1717   1.082       .  S
C1707      C1716   1.363       .  A
C1707      C1708   1.378       .  A
C1708      C1709   1.410       .  A
C1708      O1714   1.322       .  A
C1709      C1710   1.409       .  A
C1709      H1718   1.082       .  S
C1710      C1713   1.372       .  A
O1711      C1712   1.332       .  A
C1712      C1713   1.396       .  A
C1713      H1719   1.082       .  S
O1714      C1715   1.338       .  A
C1715      C1716   1.395       .  A
C1716      H1720   1.082       .  S
C1721      C1726   1.378       .  A
C1721      C1722   1.406       .  A
C1721      O1727   1.326       .  A
C1722      C1723   1.408       .  A
C1722      H1733   1.082       .  S
C1723      C1732   1.362       .  A
C1723      C1724   1.381       .  A
C1724      C1725   1.398       .  A
C1724      O1730   1.318       .  A
C1725      C1726   1.400       .  A
C1725      H1734   1.083       .  S
C1726      C1729   1.350       .  A
O1727      C1728   1.335       .  A
C1728      C1729   1.400       .  A
C1729      H1735   1.082       .  S
O1730      C1731   1.328       .  A
C1731      C1732   1.394       .  A
C1732      H1736   1.083       .  S
C1737      C1742   1.378       .  A
C1737      C1738   1.398       .  A
C1737      O1743   1.316       .  A
C1738      C1739   1.399       .  A
C1738      H1749   1.083       .  S
C1739      C1748   1.352       .  A
C1739      C1740   1.379       .  A
C1740      C1741   1.412       .  A
C1740      O1746   1.331       .  A
C1741      C1742   1.413       .  A
C1741      H1750   1.082       .  S
C1742      C1745   1.369       .  A
O1743      C1744   1.331       .  A
C1744      C1745   1.402       .  A
C1745      H1751   1.082       .  S
O1746      C1747   1.336       .  A
C1747      C1748   1.393       .  A
C1748      H1752   1.083       .  S
C1753      C1758   1.379       .  A
C1753      C1754   1.410       .  A
C1753      O1759   1.328       .  A
C1754      C1755   1.411       .  A
C1754      H1765   1.082       .  S
C1755      C1764   1.367       .  A
C1755      C1756   1.381       .  A
C1756      C1757   1.394       .  A
C1756      O1762   1.313       .  A
C1757      C1758   1.395       .  A
C1757      H1766   1.083       .  S
C1758      C1761   1.345       .  A
O1759      C1760   1.336       .  A
C1760      C1761   1.396       .  A
C1761      H1767   1.083       .  S
O1762      C1763   1.325       .  A
C1763      C1764   1.395       .  A
C1764      H1768   1.083       .  S
C1769      C1774   1.379       .  A
C1769      C1770   1.414       .  A
C1769      O1775   1.326       .  A
C1770      C1771   1.412       .  A
C1770      H1781   1.082       .  S
C1771      C1780   1.375       .  A
C1771      C1772   1.376       .  A
C1772      C1773   1.399       .  A
C1772      O1778   1.310       .  A
C1773      C1774   1.396       .  A
C1773      H1782   1.083       .  S
C1774      C1777   1.356       .  A
O1775      C1776   1.336       .  A
C1776      C1777   1.388       .  A
C1777      H1783   1.083       .  S
O1778      C1779   1.334       .  A
C1779      C1780   1.404       .  A
C1780      H1784   1.082       .  S
C1785      C1790   1.379       .  A
C1785      C1786   1.402       .  A
C1785      O1791   1.318       .  A
C1786      C1787   1.401       .  A
C1786      H1797   1.082       .  S
C1787      C1796   1.358       .  A
C1787      C1788   1.377       .  A
C1788      C1789   1.416       .  A
C1788      O1794   1.330       .  A
C1789      C1790   1.416       .  A
C1789      H1798   1.082       .  S
C1790      C1793   1.379       .  A
O1791      C1792   1.331       .  A
C1792      C1793   1.399       .  A
C1793      H1799   1.082       .  S
O1794      C1795   1.341       .  A
C1795      C1796   1.396       .  A
C1796      H1800   1.081       .  S
C1801      C1806   1.377       .  A
C1801      C1802   1.398       .  A
C1801      O1807   1.311       .  A
C1802      C1803   1.396       .  A
C1802      H1813   1.083       .  S
C1803      C1812   1.355       .  A
C1803      C1804   1.378       .  A
C1804      C1805   1.420       .  A
C1804      O1810   1.333       .  A
C1805      C1806   1.419       .  A
C1805      H1814   1.082       .  S
C1806      C1809   1.382       .  A
O1807      C1808   1.332       .  A
C1808      C1809   1.404       .  A
C1809      H1815   1.082   1_565  S
O1810      C1811   1.339       .  A
C1811      C1812   1.389       .  A
C1812      H1816   1.083       .  S
C1817      C1822   1.378       .  A
C1817      C1818   1.398       .  A
C1817      O1823   1.319       .  A
C1818      C1819   1.401       .  A
C1818      H1829   1.082       .  S
C1819      C1828   1.352       .  A
C1819      C1820   1.380       .  A
C1820      C1821   1.405       .  A
C1820      O1826   1.326       .  A
C1821      C1822   1.407       .  A
C1821      H1830   1.082       .  S
C1822      C1825   1.357       .  A
O1823      C1824   1.331       .  A
C1824      C1825   1.404       .  A
C1825      H1831   1.081       .  S
O1826      C1827   1.332       .  A
C1827      C1828   1.392       .  A
C1828      H1832   1.083       .  S
C1833      C1838   1.380   1_455  A
C1833      C1834   1.405       .  A
C1833      O1839   1.321       .  A
C1834      C1835   1.405       .  A
C1834      H1845   1.082       .  S
C1835      C1844   1.362       .  A
C1835      C1836   1.379   1_455  A
C1836      C1837   1.399       .  A
C1836      O1842   1.315       .  A
C1837      C1838   1.399       .  A
C1837      H1846   1.083       .  S
C1838      C1841   1.355       .  A
O1839      C1840   1.331       .  A
C1840      C1841   1.391   1_455  A
C1841      H1847   1.083       .  S
O1842      C1843   1.331   1_655  A
C1843      C1844   1.398       .  A
C1844      H1848   1.082       .  S
C1849      C1854   1.380       .  A
C1849      C1850   1.400   1_455  A
C1849      O1855   1.315   1_455  A
C1850      C1851   1.398   1_655  A
C1850      H1861   1.082       .  S
C1851      C1860   1.358   1_455  A
C1851      C1852   1.379       .  A
C1852      C1853   1.407       .  A
C1852      O1858   1.319       .  A
C1853      C1854   1.405       .  A
C1853      H1862   1.082       .  S
C1854      C1857   1.366       .  A
O1855      C1856   1.329   1_655  A
C1856      C1857   1.394       .  A
C1857      H1863   1.083       .  S
O1858      C1859   1.334       .  A
C1859      C1860   1.394   1_455  A
C1860      H1864   1.082       .  S
C1865      C1870   1.380       .  A
C1865      C1866   1.410       .  A
C1865      O1871   1.329       .  A
C1866      C1867   1.411       .  A
C1866      H1877   1.082       .  S
C1867      C1876   1.364       .  A
C1867      C1868   1.380       .  A
C1868      C1869   1.396       .  A
C1868      O1874   1.317       .  A
C1869      C1870   1.399       .  A
C1869      H1878   1.082       .  S
C1870      C1873   1.351       .  A
O1871      C1872   1.335       .  A
C1872      C1873   1.392       .  A
C1873      H1879   1.083       .  S
O1874      C1875   1.329       .  A
C1875      C1876   1.400       .  A
C1876      H1880   1.083       .  S
C1881      C1886   1.380       .  A
C1881      C1882   1.406       .  A
C1881      O1887   1.325       .  A
C1882      C1883   1.407       .  A
C1882      H1893   1.082       .  S
C1883      C1892   1.359       .  A
C1883      C1884   1.378       .  A
C1884      C1885   1.400       .  A
C1884      O1890   1.320       .  A
C1885      C1886   1.402       .  A
C1885      H1894   1.082       .  S
C1886      C1889   1.355       .  A
O1887      C1888   1.333       .  A
C1888      C1889   1.392       .  A
C1889      H1895   1.083       .  S
O1890      C1891   1.333       .  A
C1891      C1892   1.402       .  A
C1892      H1896   1.081       .  S
C1897      C1902   1.377       .  A
C1897      C1898   1.412       .  A
C1897      O1903   1.326       .  A
C1898      C1899   1.412       .  A
C1898      H1909   1.082       .  S
C1899      C1908   1.370       .  A
C1899      C1900   1.379       .  A
C1900      C1901   1.399       .  A
C1900      O1906   1.316       .  A
C1901      C1902   1.399       .  A
C1901      H1910   1.082       .  S
C1902      C1905   1.354       .  A
O1903      C1904   1.339       .  A
C1904      C1905   1.397       .  A
C1905      H1911   1.082       .  S
O1906      C1907   1.329       .  A
C1907      C1908   1.396       .  A
C1908      H1912   1.082       .  S
C1913      C1918   1.378       .  A
C1913      C1914   1.414       .  A
C1913      O1919   1.326       .  A
C1914      C1915   1.412       .  A
C1914      H1925   1.082       .  S
C1915      C1924   1.375       .  A
C1915      C1916   1.380       .  A
C1916      C1917   1.395       .  A
C1916      O1922   1.310       .  A
C1917      C1918   1.394       .  A
C1917      H1926   1.082       .  S
C1918      C1921   1.353       .  A
O1919      C1920   1.338       .  A
C1920      C1921   1.391       .  A
C1921      H1927   1.083       .  S
O1922      C1923   1.327       .  A
C1923      C1924   1.397       .  A
C1924      H1928   1.082       .  S
C1929      C1934   1.379       .  A
C1929      C1930   1.412       .  A
C1929      O1935   1.326       .  A
C1930      C1931   1.411       .  A
C1930      H1941   1.082       .  S
C1931      C1940   1.371       .  A
C1931      C1932   1.379       .  A
C1932      C1933   1.396       .  A
C1932      O1938   1.311       .  A
C1933      C1934   1.395       .  A
C1933      H1942   1.082       .  S
C1934      C1937   1.353       .  A
O1935      C1936   1.336       .  A
C1936      C1937   1.389       .  A
C1937      H1943   1.083       .  S
O1938      C1939   1.330       .  A
C1939      C1940   1.400       .  A
C1940      H1944   1.082       .  S
C1945      C1950   1.378       .  A
C1945      C1946   1.414       .  A
C1945      O1951   1.329       .  A
C1946      C1947   1.414       .  A
C1946      H1957   1.082       .  S
C1947      C1956   1.373       .  A
C1947      C1948   1.381       .  A
C1948      C1949   1.397       .  A
C1948      O1954   1.316       .  A
C1949      C1950   1.397       .  A
C1949      H1958   1.082       .  S
C1950      C1953   1.352       .  A
O1951      C1952   1.339       .  A
C1952      C1953   1.393       .  A
C1953      H1959   1.083       .  S
O1954      C1955   1.327       .  A
C1955      C1956   1.398       .  A
C1956      H1960   1.082       .  S
C1961      C1966   1.379       .  A
C1961      C1962   1.401       .  A
C1961      O1967   1.319       .  A
C1962      C1963   1.402       .  A
C1962      H1973   1.083       .  S
C1963      C1972   1.356       .  A
C1963      C1964   1.379       .  A
C1964      C1965   1.412       .  A
C1964      O1970   1.330       .  A
C1965      C1966   1.412       .  A
C1965      H1974   1.082       .  S
C1966      C1969   1.369       .  A
O1967      C1968   1.333       .  A
C1968      C1969   1.398       .  A
C1969      H1975   1.082       .  S
O1970      C1971   1.336       .  A
C1971      C1972   1.393       .  A
C1972      H1976   1.083       .  S
C1977      C1982   1.381       .  A
C1977      C1978   1.400       .  A
C1977      O1983   1.313       .  A
C1978      C1979   1.399       .  A
C1978      H1989   1.082       .  S
C1979      C1988   1.360       .  A
C1979      C1980   1.380       .  A
C1980      C1981   1.396       .  A
C1980      O1986   1.308       .  A
C1981      C1982   1.394       .  A
C1981      H1990   1.083       .  S
C1982      C1985   1.354       .  A
O1983      C1984   1.328       .  A
C1984      C1985   1.387       .  A
C1985      H1991   1.083       .  S
O1986      C1987   1.330       .  A
C1987      C1988   1.394       .  A
C1988      H1992   1.082       .  S
C1993      C1998   1.379       .  A
C1993      C1994   1.405       .  A
C1993      O1999   1.320       .  A
C1994      C1995   1.405       .  A
C1994      H2005   1.082       .  S
C1995      C2004   1.364       .  A
C1995      C1996   1.382       .  A
C1996      C1997   1.394       .  A
C1996      O2002   1.312       .  A
C1997      C1998   1.394       .  A
C1997      H2006   1.083       .  S
C1998      C2001   1.348       .  A
O1999      C2000   1.334       .  A
C2000      C2001   1.393       .  A
C2001      H2007   1.083       .  S
O2002      C2003   1.325       .  A
C2003      C2004   1.391       .  A
C2004      H2008   1.082       .  S
C2009      C2014   1.381       .  A
C2009      C2010   1.402       .  A
C2009      O2015   1.324       .  A
C2010      C2011   1.404       .  A
C2010      H2021   1.082       .  S
C2011      C2020   1.355       .  A
C2011      C2012   1.379       .  A
C2012      C2013   1.397   1_556  A
C2012      O2018   1.317   1_556  A
C2013      C2014   1.399   1_554  A
C2013      H2022   1.082       .  S
C2014      C2017   1.350   1_556  A
O2015      C2016   1.330       .  A
C2016      C2017   1.391   1_556  A
C2017      H2023   1.083       .  S
O2018      C2019   1.330   1_554  A
C2019      C2020   1.401       .  A
C2020      H2024   1.082       .  S
C2025      C2030   1.380       .  A
C2025      C2026   1.404       .  A
C2025      O2031   1.322       .  A
C2026      C2027   1.404       .  A
C2026      H2037   1.082       .  S
C2027      C2036   1.361       .  A
C2027      C2028   1.378       .  A
C2028      C2029   1.402       .  A
C2028      O2034   1.316       .  A
C2029      C2030   1.402       .  A
C2029      H2038   1.083       .  S
C2030      C2033   1.358       .  A
O2031      C2032   1.332       .  A
C2032      C2033   1.392       .  A
C2033      H2039   1.083       .  S
O2034      C2035   1.333       .  A
C2035      C2036   1.397       .  A
C2036      H2040   1.081       .  S
C2041      C2046   1.382       .  A
C2041      C2042   1.406       .  A
C2041      O2047   1.324       .  A
C2042      C2043   1.406       .  A
C2042      H2053   1.082       .  S
C2043      C2052   1.361       .  A
C2043      C2044   1.380       .  A
C2044      C2045   1.398       .  A
C2044      O2050   1.317       .  A
C2045      C2046   1.399       .  A
C2045      H2054   1.082       .  S
C2046      C2049   1.354       .  A
O2047      C2048   1.333       .  A
C2048      C2049   1.389       .  A
C2049      H2055   1.083       .  S
O2050      C2051   1.330       .  A
C2051      C2052   1.397       .  A
C2052      H2056   1.082       .  S
C2057      C2062   1.379   1_556  A
C2057      C2058   1.404       .  A
C2057      O2063   1.317       .  A
C2058      C2059   1.402       .  A
C2058      H2069   1.082       .  S
C2059      C2068   1.363       .  A
C2059      C2060   1.380   1_556  A
C2060      C2061   1.406       .  A
C2060      O2066   1.320       .  A
C2061      C2062   1.405       .  A
C2061      H2070   1.082       .  S
C2062      C2065   1.365       .  A
O2063      C2064   1.334   1_556  A
C2064      C2065   1.396       .  A
C2065      H2071   1.082       .  S
O2066      C2067   1.332   1_554  A
C2067      C2068   1.390       .  A
C2068      H2072   1.083       .  S
C2073      C2078   1.378       .  A
C2073      C2074   1.409       .  A
C2073      O2079   1.321       .  A
C2074      C2075   1.407       .  A
C2074      H2085   1.082       .  S
C2075      C2084   1.371       .  A
C2075      C2076   1.380       .  A
C2076      C2077   1.401       .  A
C2076      O2082   1.314       .  A
C2077      C2078   1.399       .  A
C2077      H2086   1.082   1_554  S
C2078      C2081   1.359   1_554  A
O2079      C2080   1.335       .  A
C2080      C2081   1.393   1_554  A
C2081      H2087   1.083       .  S
O2082      C2083   1.330       .  A
C2083      C2084   1.393       .  A
C2084      H2088   1.082       .  S
C2089      C2094   1.379       .  A
C2089      C2090   1.402       .  A
C2089      O2095   1.322       .  A
C2090      C2091   1.403       .  A
C2090      H2101   1.082       .  S
C2091      C2100   1.356       .  A
C2091      C2092   1.379       .  A
C2092      C2093   1.410       .  A
C2092      O2098   1.330       .  A
C2093      C2094   1.412       .  A
C2093      H2102   1.082       .  S
C2094      C2097   1.366       .  A
O2095      C2096   1.333       .  A
C2096      C2097   1.401       .  A
C2097      H2103   1.082       .  S
O2098      C2099   1.335       .  A
C2099      C2100   1.394       .  A
C2100      H2104   1.083       .  S
C2105      C2110   1.378       .  A
C2105      C2106   1.412       .  A
C2105      O2111   1.325       .  A
C2106      C2107   1.411       .  A
C2106      H2117   1.082       .  S
C2107      C2116   1.373       .  A
C2107      C2108   1.380       .  A
C2108      C2109   1.402       .  A
C2108      O2114   1.317       .  A
C2109      C2110   1.401       .  A
C2109      H2118   1.082       .  S
C2110      C2113   1.360       .  A
O2111      C2112   1.338       .  A
C2112      C2113   1.395       .  A
C2113      H2119   1.082       .  S
O2114      C2115   1.330       .  A
C2115      C2116   1.396       .  A
C2116      H2120   1.082       .  S
C2121      C2126   1.376   1_565  A
C2121      C2122   1.418       .  A
C2121      O2127   1.329       .  A
C2122      C2123   1.417       .  A
C2122      H2133   1.082       .  S
C2123      C2132   1.380       .  A
C2123      C2124   1.379       .  A
C2124      C2125   1.399   1_565  A
C2124      O2130   1.314   1_565  A
C2125      C2126   1.398       .  A
C2125      H2134   1.082       .  S
C2126      C2129   1.356       .  A
O2127      C2128   1.342   1_565  A
C2128      C2129   1.398       .  A
C2129      H2135   1.081       .  S
O2130      C2131   1.329   1_545  A
C2131      C2132   1.401       .  A
C2132      H2136   1.082       .  S
C2137      C2142   1.378       .  A
C2137      C2138   1.405   1_545  A
C2137      O2143   1.322   1_545  A
C2138      C2139   1.405   1_565  A
C2138      H2149   1.082       .  S
C2139      C2148   1.361   1_545  A
C2139      C2140   1.378       .  A
C2140      C2141   1.416       .  A
C2140      O2146   1.334       .  A
C2141      C2142   1.417       .  A
C2141      H2150   1.082       .  S
C2142      C2145   1.375       .  A
O2143      C2144   1.335   1_565  A
C2144      C2145   1.403       .  A
C2145      H2151   1.082       .  S
O2146      C2147   1.339       .  A
C2147      C2148   1.395   1_545  A
C2148      H2152   1.083       .  S
C2153      C2158   1.378       .  A
C2153      C2154   1.410       .  A
C2153      O2159   1.320       .  A
C2154      C2155   1.408       .  A
C2154      H2165   1.082       .  S
C2155      C2164   1.372       .  A
C2155      C2156   1.380       .  A
C2156      C2157   1.399       .  A
C2156      O2162   1.311       .  A
C2157      C2158   1.396       .  A
C2157      H2166   1.082       .  S
C2158      C2161   1.359       .  A
O2159      C2160   1.337       .  A
C2160      C2161   1.391       .  A
C2161      H2167   1.082       .  S
O2162      C2163   1.328       .  A
C2163      C2164   1.395       .  A
C2164      H2168   1.082       .  S
C2169      C2174   1.380       .  A
C2169      C2170   1.403       .  A
C2169      O2175   1.319       .  A
C2170      C2171   1.403       .  A
C2170      H2181   1.082       .  S
C2171      C2180   1.361       .  A
C2171      C2172   1.381       .  A
C2172      C2173   1.399       .  A
C2172      O2178   1.316       .  A
C2173      C2174   1.398       .  A
C2173      H2182   1.082       .  S
C2174      C2177   1.353       .  A
O2175      C2176   1.332       .  A
C2176      C2177   1.394       .  A
C2177      H2183   1.083       .  S
O2178      C2179   1.329       .  A
C2179      C2180   1.392       .  A
C2180      H2184   1.083       .  S
C2185      C2190   1.378       .  A
C2185      C2186   1.403       .  A
C2185      O2191   1.315       .  A
C2186      C2187   1.402       .  A
C2186      H2197   1.082       .  S
C2187      C2196   1.365       .  A
C2187      C2188   1.381       .  A
C2188      C2189   1.401       .  A
C2188      O2194   1.314       .  A
C2189      C2190   1.398       .  A
C2189      H2198   1.082       .  S
C2190      C2193   1.359       .  A
O2191      C2192   1.333       .  A
C2192      C2193   1.395       .  A
C2193      H2199   1.082       .  S
O2194      C2195   1.330       .  A
C2195      C2196   1.391       .  A
C2196      H2200   1.083       .  S
C2201      C2206   1.380   1_554  A
C2201      C2202   1.397       .  A
C2201      O2207   1.311       .  A
C2202      C2203   1.396       .  A
C2202      H2213   1.082       .  S
C2203      C2212   1.356       .  A
C2203      C2204   1.381   1_554  A
C2204      C2205   1.402       .  A
C2204      O2210   1.315       .  A
C2205      C2206   1.400       .  A
C2205      H2214   1.082       .  S
C2206      C2209   1.358       .  A
O2207      C2208   1.329       .  A
C2208      C2209   1.396   1_554  A
C2209      H2215   1.083       .  S
O2210      C2211   1.330   1_556  A
C2211      C2212   1.388       .  A
C2212      H2216   1.083       .  S
C2217      C2222   1.379   1_556  A
C2217      C2218   1.399       .  A
C2217      O2223   1.312       .  A
C2218      C2219   1.398       .  A
C2218      H2229   1.082       .  S
C2219      C2228   1.359       .  A
C2219      C2220   1.381   1_556  A
C2220      C2221   1.401       .  A
C2220      O2226   1.315       .  A
C2221      C2222   1.399       .  A
C2221      H2230   1.082       .  S
C2222      C2225   1.358       .  A
O2223      C2224   1.330   1_556  A
C2224      C2225   1.393       .  A
C2225      H2231   1.082       .  S
O2226      C2227   1.330   1_554  A
C2227      C2228   1.389       .  A
C2228      H2232   1.083       .  S
C2233      C2238   1.381       .  A
C2233      C2234   1.402       .  A
C2233      O2239   1.315       .  A
C2234      C2235   1.400       .  A
C2234      H2245   1.082       .  S
C2235      C2244   1.360       .  A
C2235      C2236   1.379       .  A
C2236      C2237   1.400       .  A
C2236      O2242   1.313       .  A
C2237      C2238   1.398       .  A
C2237      H2246   1.082       .  S
C2238      C2241   1.359       .  A
O2239      C2240   1.330       .  A
C2240      C2241   1.388       .  A
C2241      H2247   1.083       .  S
O2242      C2243   1.331       .  A
C2243      C2244   1.395       .  A
C2244      H2248   1.082       .  S
C2249      C2254   1.379       .  A
C2249      C2250   1.401       .  A
C2249      O2255   1.315       .  A
C2250      C2251   1.399       .  A
C2250      H2261   1.082       .  S
C2251      C2260   1.357       .  A
C2251      C2252   1.376       .  A
C2252      C2253   1.419       .  A
C2252      O2258   1.330       .  A
C2253      C2254   1.418       .  A
C2253      H2262   1.082       .  S
C2254      C2257   1.383       .  A
O2255      C2256   1.331       .  A
C2256      C2257   1.400       .  A
C2257      H2263   1.082       .  S
O2258      C2259   1.342       .  A
C2259      C2260   1.395       .  A
C2260      H2264   1.080       .  S
C2265      C2270   1.378       .  A
C2265      C2266   1.396       .  A
C2265      O2271   1.317       .  A
C2266      C2267   1.398       .  A
C2266      H2277   1.082       .  S
C2267      C2276   1.348       .  A
C2267      C2268   1.380       .  A
C2268      C2269   1.410       .  A
C2268      O2274   1.329       .  A
C2269      C2270   1.412       .  A
C2269      H2278   1.082       .  S
C2270      C2273   1.363       .  A
O2271      C2272   1.330       .  A
C2272      C2273   1.405       .  A
C2273      H2279   1.082       .  S
O2274      C2275   1.336       .  A
C2275      C2276   1.390       .  A
C2276      H2280   1.082       .  S
C2281      C2286   1.378       .  A
C2281      C2282   1.404       .  A
C2281      O2287   1.320       .  A
C2282      C2283   1.404       .  A
C2282      H2293   1.082       .  S
C2283      C2292   1.361       .  A
C2283      C2284   1.380       .  A
C2284      C2285   1.408       .  A
C2284      O2290   1.325       .  A
C2285      C2286   1.407       .  A
C2285      H2294   1.082       .  S
C2286      C2289   1.364       .  A
O2287      C2288   1.334       .  A
C2288      C2289   1.400       .  A
C2289      H2295   1.082       .  S
O2290      C2291   1.333       .  A
C2291      C2292   1.391       .  A
C2292      H2296   1.083       .  S
C2297      C2302   1.378       .  A
C2297      C2298   1.402       .  A
C2297      O2303   1.322       .  A
C2298      C2299   1.405       .  A
C2298      H2309   1.083       .  S
C2299      C2308   1.354       .  A
C2299      C2300   1.381       .  A
C2300      C2301   1.403       .  A
C2300      O2306   1.326       .  A
C2301      C2302   1.405       .  A
C2301      H2310   1.082       .  S
C2302      C2305   1.356       .  A
O2303      C2304   1.334       .  A
C2304      C2305   1.400       .  A
C2305      H2311   1.082       .  S
O2306      C2307   1.331       .  A
C2307      C2308   1.395       .  A
C2308      H2312   1.083       .  S
C2313      C2318   1.380       .  A
C2313      C2314   1.401       .  A
C2313      O2319   1.312       .  A
C2314      C2315   1.398       .  A
C2314      H2325   1.083       .  S
C2315      C2324   1.359       .  A
C2315      C2316   1.379       .  A
C2316      C2317   1.407       .  A
C2316      O2322   1.319       .  A
C2317      C2318   1.405       .  A
C2317      H2326   1.082       .  S
C2318      C2321   1.371       .  A
O2319      C2320   1.331       .  A
C2320      C2321   1.392       .  A
C2321      H2327   1.082       .  S
O2322      C2323   1.335       .  A
C2323      C2324   1.395       .  A
C2324      H2328   1.083       .  S
C2329      C2334   1.381       .  A
C2329      C2330   1.406       .  A
C2329      O2335   1.323       .  A
C2330      C2331   1.406       .  A
C2330      H2341   1.082       .  S
C2331      C2340   1.362       .  A
C2331      C2332   1.379       .  A
C2332      C2333   1.398       .  A
C2332      O2338   1.316       .  A
C2333      C2334   1.399       .  A
C2333      H2342   1.082       .  S
C2334      C2337   1.354       .  A
O2335      C2336   1.332       .  A
C2336      C2337   1.390       .  A
C2337      H2343   1.083       .  S
O2338      C2339   1.330       .  A
C2339      C2340   1.399       .  A
C2340      H2344   1.082       .  S
C2345      C2350   1.381       .  A
C2345      C2346   1.403       .  A
C2345      O2351   1.321       .  A
C2346      C2347   1.404       .  A
C2346      H2357   1.082       .  S
C2347      C2356   1.360       .  A
C2347      C2348   1.379       .  A
C2348      C2349   1.405       .  A
C2348      O2354   1.321       .  A
C2349      C2350   1.405       .  A
C2349      H2358   1.082       .  S
C2350      C2353   1.360       .  A
O2351      C2352   1.331       .  A
C2352      C2353   1.394       .  A
C2353      H2359   1.083       .  S
O2354      C2355   1.335       .  A
C2355      C2356   1.395       .  A
C2356      H2360   1.082       .  S
C2361      C2366   1.379       .  A
C2361      C2362   1.400       .  A
C2361      O2367   1.316       .  A
C2362      C2363   1.399       .  A
C2362      H2373   1.082       .  S
C2363      C2372   1.357       .  A
C2363      C2364   1.379       .  A
C2364      C2365   1.413       .  A
C2364      O2370   1.328       .  A
C2365      C2366   1.413       .  A
C2365      H2374   1.082       .  S
C2366      C2369   1.372       .  A
O2367      C2368   1.332       .  A
C2368      C2369   1.400       .  A
C2369      H2375   1.082       .  S
O2370      C2371   1.336       .  A
C2371      C2372   1.392       .  A
C2372      H2376   1.083       .  S
C2377      C2382   1.378       .  A
C2377      C2378   1.415       .  A
C2377      O2383   1.328       .  A
C2378      C2379   1.414       .  A
C2378      H2389   1.082       .  S
C2379      C2388   1.377       .  A
C2379      C2380   1.379       .  A
C2380      C2381   1.402       .  A
C2380      O2386   1.317       .  A
C2381      C2382   1.401       .  A
C2381      H2390   1.082       .  S
C2382      C2385   1.359       .  A
O2383      C2384   1.339       .  A
C2384      C2385   1.394       .  A
C2385      H2391   1.082       .  S
O2386      C2387   1.332       .  A
C2387      C2388   1.397       .  A
C2388      H2392   1.082       .  S
C2393      C2398   1.378       .  A
C2393      C2394   1.401       .  A
C2393      O2399   1.317       .  A
C2394      C2395   1.401       .  A
C2394      H2405   1.082       .  S
C2395      C2404   1.358       .  A
C2395      C2396   1.379       .  A
C2396      C2397   1.414       .  A
C2396      O2402   1.330       .  A
C2397      C2398   1.414       .  A
C2397      H2406   1.082       .  S
C2398      C2401   1.373       .  A
O2399      C2400   1.333       .  A
C2400      C2401   1.402       .  A
C2401      H2407   1.082       .  S
O2402      C2403   1.337       .  A
C2403      C2404   1.391       .  A
C2404      H2408   1.083       .  S
C2409      C2414   1.380       .  A
C2409      C2410   1.403       .  A
C2409      O2415   1.320       .  A
C2410      C2411   1.403       .  A
C2410      H2421   1.082       .  S
C2411      C2420   1.361       .  A
C2411      C2412   1.381       .  A
C2412      C2413   1.400       .  A
C2412      O2418   1.317       .  A
C2413      C2414   1.399       .  A
C2413      H2422   1.082       .  S
C2414      C2417   1.354       .  A
O2415      C2416   1.332       .  A
C2416      C2417   1.394       .  A
C2417      H2423   1.083       .  S
O2418      C2419   1.329       .  A
C2419      C2420   1.392       .  A
C2420      H2424   1.082       .  S
C2425      C2430   1.380       .  A
C2425      C2426   1.407       .  A
C2425      O2431   1.328       .  A
C2426      C2427   1.409       .  A
C2426      H2437   1.082       .  S
C2427      C2436   1.360       .  A
C2427      C2428   1.378       .  A
C2428      C2429   1.398       .  A
C2428      O2434   1.318       .  A
C2429      C2430   1.400       .  A
C2429      H2438   1.082       .  S
C2430      C2433   1.351       .  A
O2431      C2432   1.334       .  A
C2432      C2433   1.392       .  A
C2433      H2439   1.083       .  S
O2434      C2435   1.331       .  A
C2435      C2436   1.403       .  A
C2436      H2440   1.081       .  S
C2441      C2446   1.380       .  A
C2441      C2442   1.404       .  A
C2441      O2447   1.317       .  A
C2442      C2443   1.401       .  A
C2442      H2453   1.082       .  S
C2443      C2452   1.365       .  A
C2443      C2444   1.378       .  A
C2444      C2445   1.407       .  A
C2444      O2450   1.317       .  A
C2445      C2446   1.405       .  A
C2445      H2454   1.082       .  S
C2446      C2449   1.369       .  A
O2447      C2448   1.331       .  A
C2448      C2449   1.393       .  A
C2449      H2455   1.082       .  S
O2450      C2451   1.336       .  A
C2451      C2452   1.395       .  A
C2452      H2456   1.082       .  S
C2457      C2462   1.381       .  A
C2457      C2458   1.403       .  A
C2457      O2463   1.319       .  A
C2458      C2459   1.402       .  A
C2458      H2469   1.082       .  S
C2459      C2468   1.362       .  A
C2459      C2460   1.378       .  A
C2460      C2461   1.400       .  A
C2460      O2466   1.313       .  A
C2461      C2462   1.399       .  A
C2461      H2470   1.083       .  S
C2462      C2465   1.358       .  A
O2463      C2464   1.330       .  A
C2464      C2465   1.392       .  A
C2465      H2471   1.083       .  S
O2466      C2467   1.332       .  A
C2467      C2468   1.397       .  A
C2468      H2472   1.081       .  S
C2473      C2478   1.379   1_545  A
C2473      C2474   1.418       .  A
C2473      O2479   1.335       .  A
C2474      C2475   1.419       .  A
C2474      H2485   1.082       .  S
C2475      C2484   1.378       .  A
C2475      C2476   1.378   1_545  A
C2476      C2477   1.400       .  A
C2476      O2482   1.318       .  A
C2477      C2478   1.401       .  A
C2477      H2486   1.082       .  S
C2478      C2481   1.357   1_565  A
O2479      C2480   1.339       .  A
C2480      C2481   1.391       .  A
C2481      H2487   1.083   1_545  S
O2482      C2483   1.333   1_565  A
C2483      C2484   1.405       .  A
C2484      H2488   1.081       .  S
C2489      C2494   1.378   1_545  A
C2489      C2490   1.416       .  A
C2489      O2495   1.332       .  A
C2490      C2491   1.416       .  A
C2490      H2501   1.082       .  S
C2491      C2500   1.375       .  A
C2491      C2492   1.378   1_545  A
C2492      C2493   1.402       .  A
C2492      O2498   1.319       .  A
C2493      C2494   1.403       .  A
C2493      H2502   1.082       .  S
C2494      C2497   1.359       .  A
O2495      C2496   1.338       .  A
C2496      C2497   1.395   1_545  A
C2497      H2503   1.083       .  S
O2498      C2499   1.334   1_565  A
C2499      C2500   1.402       .  A
C2500      H2504   1.082       .  S
C2505      C2510   1.377       .  A
C2505      C2506   1.414       .  A
C2505      O2511   1.327       .  A
C2506      C2507   1.413       .  A
C2506      H2517   1.082       .  S
C2507      C2516   1.377       .  A
C2507      C2508   1.379       .  A
C2508      C2509   1.404       .  A
C2508      O2514   1.317       .  A
C2509      C2510   1.402       .  A
C2509      H2518   1.082       .  S
C2510      C2513   1.361       .  A
O2511      C2512   1.339       .  A
C2512      C2513   1.399       .  A
C2513      H2519   1.082       .  S
O2514      C2515   1.333       .  A
C2515      C2516   1.398       .  A
C2516      H2520   1.082       .  S
C2521      C2526   1.379       .  A
C2521      C2522   1.415       .  A
C2521      O2527   1.333       .  A
C2522      C2523   1.416       .  A
C2522      H2533   1.082       .  S
C2523      C2532   1.372       .  A
C2523      C2524   1.379       .  A
C2524      C2525   1.401       .  A
C2524      O2530   1.320       .  A
C2525      C2526   1.402       .  A
C2525      H2534   1.082       .  S
C2526      C2529   1.356       .  A
O2527      C2528   1.339       .  A
C2528      C2529   1.394       .  A
C2529      H2535   1.083       .  S
O2530      C2531   1.333       .  A
C2531      C2532   1.402       .  A
C2532      H2536   1.082       .  S
C2537      C2542   1.380       .  A
C2537      C2538   1.402       .  A
C2537      O2543   1.318       .  A
C2538      C2539   1.401       .  A
C2538      H2549   1.082       .  S
C2539      C2548   1.358       .  A
C2539      C2540   1.378       .  A
C2540      C2541   1.406       .  A
C2540      O2546   1.321       .  A
C2541      C2542   1.406       .  A
C2541      H2550   1.082       .  S
C2542      C2545   1.364       .  A
O2543      C2544   1.330       .  A
C2544      C2545   1.394       .  A
C2545      H2551   1.082       .  S
O2546      C2547   1.335       .  A
C2547      C2548   1.397       .  A
C2548      H2552   1.081       .  S
C2553      C2558   1.377       .  A
C2553      C2554   1.412       .  A
C2553      O2559   1.330       .  A
C2554      C2555   1.414       .  A
C2554      H2565   1.082       .  S
C2555      C2564   1.369       .  A
C2555      C2556   1.381       .  A
C2556      C2557   1.396       .  A
C2556      O2562   1.317       .  A
C2557      C2558   1.397       .  A
C2557      H2566   1.083       .  S
C2558      C2561   1.347       .  A
O2559      C2560   1.338       .  A
C2560      C2561   1.397       .  A
C2561      H2567   1.082       .  S
O2562      C2563   1.327       .  A
C2563      C2564   1.396       .  A
C2564      H2568   1.082       .  S
C2569      C2574   1.379       .  A
C2569      C2570   1.405       .  A
C2569      O2575   1.320       .  A
C2570      C2571   1.404       .  A
C2570      H2581   1.082       .  S
C2571      C2580   1.362       .  A
C2571      C2572   1.378       .  A
C2572      C2573   1.413       .  A
C2572      O2578   1.328       .  A
C2573      C2574   1.413       .  A
C2573      H2582   1.082       .  S
C2574      C2577   1.375       .  A
O2575      C2576   1.333       .  A
C2576      C2577   1.397       .  A
C2577      H2583   1.082       .  S
O2578      C2579   1.338       .  A
C2579      C2580   1.397       .  A
C2580      H2584   1.083       .  S
C2585      C2590   1.380       .  A
C2585      C2586   1.397       .  A
C2585      O2591   1.311       .  A
C2586      C2587   1.395       .  A
C2586      H2597   1.082       .  S
C2587      C2596   1.354       .  A
C2587      C2588   1.381       .  A
C2588      C2589   1.399       .  A
C2588      O2594   1.314       .  A
C2589      C2590   1.399       .  A
C2589      H2598   1.082       .  S
C2590      C2593   1.356       .  A
O2591      C2592   1.330       .  A
C2592      C2593   1.394       .  A
C2593      H2599   1.083       .  S
O2594      C2595   1.327       .  A
C2595      C2596   1.388       .  A
C2596      H2600   1.083       .  S
C2601      C2606   1.380       .  A
C2601      C2602   1.407       .  A
C2601      O2607   1.325       .  A
C2602      C2603   1.408       .  A
C2602      H2613   1.082       .  S
C2603      C2612   1.363       .  A
C2603      C2604   1.377       .  A
C2604      C2605   1.407       .  A
C2604      O2610   1.324       .  A
C2605      C2606   1.408       .  A
C2605      H2614   1.082       .  S
C2606      C2609   1.365       .  A
O2607      C2608   1.333       .  A
C2608      C2609   1.394       .  A
C2609      H2615   1.083       .  S
O2610      C2611   1.336       .  A
C2611      C2612   1.400       .  A
C2612      H2616   1.081       .  S
