geometry optimzed in LAMMPS
_audit_creation_date              2020-11-30 
_audit_creation_method            'lammps2cif' 
_symmetry_space_group_name_H-M    'P1' 
_symmetry_Int_Tables_number       1 
_symmetry_cell_setting            triclinic 
loop_ 
_symmetry_equiv_pos_as_xyz 
  x,y,z 
_cell_length_a                    35.790451890895866 
_cell_length_b                    34.8369468472727 
_cell_length_c                    23.877496762773486 
_cell_angle_alpha                 89.64525607400007 
_cell_angle_beta                  89.97335596281714 
_cell_angle_gamma                 119.03045156954005 
loop_ 
_atom_site_label 
_atom_site_type_symbol 
_atom_site_fract_x 
_atom_site_fract_y 
_atom_site_fract_z 
_atom_site_charge 
Fe1        Fe  0.36415545  0.12844177  0.31167056     1.65780
Fe2        Fe  0.27665896  0.14423863  0.30011951     1.73250
Fe3        Fe  0.37506852  0.23161852  0.32406751     1.54410
O4          O  0.41715808  0.22818268  0.38330800    -0.80990
O5          O  0.27891385  0.19127886  0.24361297    -0.79290
O6          O  0.40277481  0.15884503  0.37951882    -0.83490
O7          O  0.41429701  0.17368890  0.25845877    -0.78350
O8          O  0.33579109  0.22852786  0.38841698    -0.80120
O9          O  0.27953609  0.10892667  0.23143383    -0.82870
C10         C  0.43413748  0.21568749  0.24951474     0.97900
C11         C  0.42310975  0.19696604  0.40031511     1.05340
O12         O  0.33877127  0.16809408  0.31147711    -1.11850
O13         O  0.26357038  0.09362039  0.35532123    -0.74280
O14         O  0.31884437  0.08201497  0.36811449    -0.77770
O15         O  0.41801351  0.24004311  0.26111244    -0.78460
C16         C  0.28048190  0.07298612  0.37872650     0.96800
O17         O  0.32655495  0.08598249  0.24694603    -0.76420
O18         O  0.26862417  0.17860231  0.36840317    -0.81610
C19         C  0.30553184  0.23166987  0.24104560     0.99420
C20         C  0.29589604  0.20932661  0.39923162     1.05340
O21         O  0.34043878  0.24750327  0.26822263    -0.77250
C22         C  0.29062104  0.07929182  0.22819211     1.03640
C23         C  0.28351170  0.22661302  0.44944320     0.03820
C24         C  0.31581330  0.24638267  0.49015728    -0.12330
C25         C  0.31524341  0.27599567  0.52830196     0.01320
C26         C  0.27915289  0.28042013  0.03357344    -0.10860
C27         C  0.24771920  0.26461829  0.99250637     0.03810
C28         C  0.24856743  0.23585127  0.95073448    -0.10280
H29         H  0.34484369  0.24398901  0.48714821     0.09400
H30         H  0.27986500  0.30359668  0.06416405     0.06930
H31         H  0.22506611  0.22428404  0.91757943     0.06780
C32         C  0.97898510  0.01006931  0.59221397     0.03820
C33         C  0.45085997  0.46625129  0.60566229    -0.12330
C34         C  0.46296116  0.43390560  0.59613573     0.01320
C35         C  0.50542342  0.44645015  0.58329256    -0.10860
C36         C  0.03467329  0.99077601  0.57356457     0.03810
C37         C  0.02104656  0.02191145  0.57644937    -0.10280
H38         H  0.41785291  0.45628688  0.61486738     0.09400
H39         H  0.51430471  0.42153971  0.57407753     0.06930
H40         H  0.04281017  0.05522230  0.56294629     0.06780
C41         C  0.45614446  0.20323457  0.44336143     0.03820
C42         C  0.44758366  0.16615531  0.47628942    -0.12330
C43         C  0.48090585  0.15875428  0.49428050     0.01320
C44         C  0.02244296  0.19035998  0.98034251    -0.10860
C45         C  0.03214639  0.23352988  0.96698488     0.03810
C46         C  0.49850541  0.23970684  0.94454423    -0.10280
H47         H  0.41469701  0.14184206  0.48413166     0.09400
H48         H  0.04793587  0.18272875  0.98712549     0.06930
H49         H  0.50540043  0.27098012  0.92631804     0.06780
C50         C  0.21525002  0.46527694  0.96391680     0.03820
C51         C  0.19151237  0.47900121  0.99575609    -0.12330
C52         C  0.19479115  0.01977705  0.48821655     0.01320
C53         C  0.22577474  0.05029774  0.45263392    -0.10860
C54         C  0.25323257  0.03966890  0.42196821     0.03810
C55         C  0.24813046  0.99640537  0.92797070    -0.10280
H56         H  0.16616260  0.45587629  0.02286935     0.09400
H57         H  0.22640773  0.08142081  0.44611540     0.06930
H58         H  0.26738559  0.98660613  0.90320403     0.06780
Fe59       Fe  0.14073090  0.26672563  0.07107413     1.65780
Fe60       Fe  0.12849589  0.35724215  0.05010714     1.73250
Fe61       Fe  0.22923836  0.36718383  0.05542270     1.54410
O62         O  0.23756350  0.33189618  0.11795138    -0.80990
O63         O  0.16375294  0.39030011  0.97853219    -0.79290
O64         O  0.17915784  0.26937162  0.13888791    -0.83490
O65         O  0.18158688  0.25691345  0.01955658    -0.78350
O66         O  0.23164607  0.41349588  0.11522735    -0.80120
O67         O  0.08115473  0.30685674  0.00083542    -0.82870
C68         C  0.21759186  0.28238621  0.99795037     0.97900
C69         C  0.21830945  0.29680749  0.14655585     1.05340
O70         O  0.16623920  0.33057362  0.05956760    -1.11850
O71         O  0.08920438  0.32660507  0.12124443    -0.74280
O72         O  0.09759139  0.26791368  0.12683546    -0.77770
O73         O  0.23307393  0.32427664  0.99645974    -0.78460
C74         C  0.08007493  0.28969204  0.14352425     0.96800
O75         O  0.10063544  0.25534681  0.00379420    -0.76420
O76         O  0.16843671  0.40972068  0.10059252    -0.81610
C77         C  0.20352118  0.41865223  0.97497608     0.99420
C78         C  0.20500125  0.42743617  0.12410332     1.05340
O79         O  0.23210957  0.41075298  0.99379815    -0.77250
C80         C  0.07448759  0.26842336  0.98916695     1.03640
C81         C  0.24521030  0.29139666  0.18975869     0.03820
C82         C  0.27328388  0.33066223  0.21639233    -0.12330
C83         C  0.31426796  0.33905400  0.22900612     0.01320
C84         C  0.32656931  0.30771238  0.21790382    -0.10860
C85         C  0.29533961  0.26391318  0.21202875     0.03810
C86         C  0.25432567  0.25566327  0.19249755    -0.10280
H87         H  0.26498034  0.35651312  0.22148062     0.09400
H88         H  0.35936356  0.31610396  0.22692289     0.06930
H89         H  0.23092058  0.22318136  0.17902210     0.06780
C90         C  0.00245759  0.05374151  0.34730319     0.03820
C91         C  0.46268658  0.51589490  0.35428322    -0.12330
C92         C  0.45784969  0.47472734  0.34041756     0.01320
C93         C  0.49400316  0.46997187  0.33323414    -0.10860
C94         C  0.03391125  0.00696160  0.32436255     0.03810
C95         C  0.03741347  0.04873400  0.33015034    -0.10280
H96         H  0.43448321  0.51835127  0.36418271     0.09400
H97         H  0.49015671  0.43756818  0.32668260     0.06930
H98         H  0.06653808  0.07754126  0.31710532     0.06780
C99         C  0.05100841  0.27025104  0.19325173     0.03820
C100        C  0.06423024  0.24878884  0.23283764    -0.12330
C101        C  0.53774218  0.22479760  0.27716682     0.01320
C102        C  0.50113258  0.22770633  0.28720021    -0.10860
C103        C  0.48170932  0.23756394  0.24304095     0.03810
C104        C  0.50764217  0.26194322  0.19639213    -0.10280
H105        H  0.09327979  0.24694203  0.22621121     0.09400
H106        H  0.48184990  0.20962552  0.32295003     0.06930
H107        H  0.49388505  0.27126643  0.16207140     0.06780
C108        C  0.21320876  0.46367508  0.16525165     0.03820
C109        C  0.25340533  0.00249908  0.17502626    -0.12330
C110        C  0.25519572  0.03379255  0.21500055     0.01320
C111        C  0.21810263  0.02384669  0.24479624    -0.10860
C112        C  0.17768293  0.49377420  0.22593092     0.03810
C113        C  0.17621958  0.46045772  0.19155487    -0.10280
H114        H  0.28168292  0.00841510  0.15174140     0.09400
H115        H  0.22115036  0.04252683  0.28171022     0.06930
H116        H  0.14670877  0.43056465  0.18649034     0.06780
C117        C  0.06962064  0.00224465  0.29859612    -0.04650
C118        C  0.11204137  0.03060532  0.31410416    -0.01770
C119        C  0.14519950  0.03332188  0.28072826     0.03220
C120        C  0.13902203  0.49788308  0.24544841    -0.04650
C121        C  0.09631177  0.47060547  0.22694267    -0.01760
C122        C  0.06230869  0.47433259  0.25200713     0.03220
C123        C  0.12260709  0.05943557  0.36204766     0.37870
C124        C  0.08701470  0.44402831  0.17711051     0.37860
C125        C  0.02014654  0.45183470  0.22764122     0.36280
C126        C  0.17801792  0.07763926  0.26780723     0.36280
N127        N  0.98535571  0.43462405  0.21174426    -0.38540
N128        N  0.20244362  0.11357886  0.25685545    -0.38540
N129        N  0.07914037  0.42295414  0.13707217    -0.37980
N130        N  0.13169260  0.08245763  0.40028224    -0.37990
C131        C  0.50648657  0.09830343  0.34227523    -0.04650
C132        C  0.98128721  0.10493893  0.30221424    -0.01770
C133        C  0.99858462  0.14421140  0.27223049     0.03220
C134        C  0.53392095  0.18201888  0.29400876    -0.04650
C135        C  0.55602781  0.17772063  0.34028282    -0.01760
C136        C  0.54323643  0.13550369  0.36312807     0.03220
C137        C  0.93585218  0.07529222  0.29705741     0.37870
C138        C  0.59247065  0.21616991  0.36261955     0.37860
C139        C  0.56590400  0.13035292  0.41029403     0.36280
C140        C  0.97820178  0.14601970  0.22037812     0.36280
N141        N  0.58340034  0.12625079  0.44869617    -0.38540
N142        N  0.96168171  0.14705316  0.17917759    -0.38540
N143        N  0.62188555  0.24687501  0.38005807    -0.37980
N144        N  0.89924295  0.05311174  0.29311743    -0.37990
C145        C  0.34326339  0.37671768  0.26311720    -0.04650
C146        C  0.36438477  0.41883322  0.24010633    -0.01770
C147        C  0.40153281  0.45091520  0.26615259     0.03220
C148        C  0.41695637  0.44108279  0.31617172    -0.04650
C149        C  0.39531936  0.39812493  0.33815473    -0.01760
C150        C  0.35668440  0.36772142  0.31433499     0.03220
C151        C  0.34864798  0.42825368  0.18872573     0.37870
C152        C  0.41497274  0.38218316  0.37822155     0.37860
C153        C  0.33051447  0.32577215  0.34067852     0.36280
C154        C  0.42695140  0.49140058  0.23629954     0.36280
N155        N  0.30713841  0.29205842  0.35960990    -0.38540
N156        N  0.44671977  0.52321659  0.21087153    -0.38540
N157        N  0.42957206  0.36664528  0.40789984    -0.37980
N158        N  0.33522242  0.43520445  0.14815911    -0.37990
C159        C  0.15664123  0.02275039  0.50401243    -0.04650
C160        C  0.15484831  0.54185029  0.05503449    -0.01770
C161        C  0.11488839  0.53298160  0.07703808     0.03220
C162        C  0.07699375  0.00373813  0.54887690    -0.04650
C163        C  0.07931550  0.98700712  0.49621550    -0.01760
C164        C  0.11887703  0.99632030  0.47386956     0.03220
C165        C  0.19362401  0.56787424  0.08653039     0.37870
C166        C  0.04094319  0.95852381  0.46570189     0.37860
C167        C  0.12045324  0.97476000  0.42252867     0.36280
C168        C  0.11266443  0.55250384  0.12947088     0.36280
N169        N  0.12184755  0.95701273  0.38241105    -0.38540
N170        N  0.11084246  0.56837870  0.17105626    -0.38620
N171        N  0.01061159  0.93490794  0.44142042    -0.37980
N172        N  0.22448627  0.58850778  0.11190130    -0.37990
C173        C  0.46518900  0.04394898  0.58628332    -0.04650
C174        C  0.99363684  0.08589829  0.10578231    -0.01770
C175        C  0.99970160  0.12288351  0.07515431     0.03220
C176        C  0.47328217  0.11899008  0.52836584    -0.04650
C177        C  0.43974570  0.07651921  0.51504053    -0.01760
C178        C  0.43444063  0.03952584  0.54600372     0.03220
C179        C  0.02076551  0.09066651  0.15382469     0.37870
C180        C  0.41362514  0.06943142  0.46566365     0.37860
C181        C  0.39646973  0.99775393  0.53721091     0.36280
C182        C  0.03836307  0.16245358  0.08783519     0.36280
N183        N  0.36514350  0.96531077  0.52965743    -0.38540
N184        N  0.07221952  0.18993692  0.09839155    -0.38540
N185        N  0.39270512  0.06345964  0.42630099    -0.37980
N186        N  0.04213868  0.09459593  0.19209614    -0.37990
C187        C  0.35591445  0.31440215  0.54419827    -0.04650
C188        C  0.36837087  0.35458581  0.51564979    -0.01770
C189        C  0.40678230  0.39130710  0.52888673     0.03220
C190        C  0.42940582  0.39087247  0.57668990    -0.04650
C191        C  0.41873771  0.35066794  0.10379038    -0.01760
C192        C  0.38231663  0.31193576  0.08623685     0.03220
C193        C  0.34095044  0.35986898  0.47507242     0.37870
C194        C  0.44525011  0.34851205  0.14806307     0.37860
C195        C  0.37145548  0.27002289  0.11198668     0.36280
C196        C  0.42389323  0.42978473  0.49257188     0.36280
N197        N  0.36301377  0.23649046  0.13218934    -0.38540
N198        N  0.43853123  0.46064412  0.46410099    -0.38540
N199        N  0.46602989  0.34545147  0.18306720    -0.37980
N200        N  0.31934079  0.36596982  0.44438287    -0.37990
Fe201      Fe  0.36415545  0.12844176  0.81167056     1.65780
Fe202      Fe  0.27665896  0.14423862  0.80011952     1.73250
Fe203      Fe  0.37506852  0.23161850  0.82406751     1.54410
O204        O  0.41715810  0.22818266  0.88330798    -0.80990
O205        O  0.27891384  0.19127884  0.74361297    -0.79290
O206        O  0.40277480  0.15884500  0.87951883    -0.83490
O207        O  0.41429702  0.17368889  0.75845879    -0.78350
O208        O  0.33579111  0.22852784  0.88841700    -0.80120
O209        O  0.27953607  0.10892664  0.73143384    -0.82870
C210        C  0.43413748  0.21568748  0.74951473     0.97900
C211        C  0.42310975  0.19696602  0.90031510     1.05340
O212        O  0.33877127  0.16809406  0.81147710    -1.11850
O213        O  0.26357038  0.09362039  0.85532124    -0.74280
O214        O  0.31884436  0.08201495  0.86811448    -0.77770
O215        O  0.41801348  0.24004308  0.76111241    -0.78460
C216        C  0.28048189  0.07298611  0.87872651     0.96800
O217        O  0.32655495  0.08598248  0.74694602    -0.76420
O218        O  0.26862418  0.17860232  0.86840317    -0.81610
C219        C  0.30553182  0.23166985  0.74104561     0.99420
C220        C  0.29589605  0.20932660  0.89923163     1.05340
O221        O  0.34043877  0.24750325  0.76822266    -0.77250
C222        C  0.29062103  0.07929180  0.72819211     1.03640
C223        C  0.28351171  0.22661302  0.94944321     0.03820
C224        C  0.31581331  0.24638267  0.99015729    -0.12330
C225        C  0.31524341  0.27599567  0.02830196     0.01320
C226        C  0.27915289  0.28042014  0.53357343    -0.10860
C227        C  0.24771920  0.26461830  0.49250637     0.03810
C228        C  0.24856742  0.23585128  0.45073448    -0.10280
H229        H  0.34484370  0.24398901  0.98714822     0.09400
H230        H  0.27986500  0.30359670  0.56416404     0.06930
H231        H  0.22506610  0.22428405  0.41757943     0.06780
C232        C  0.97898510  0.01006932  0.09221396     0.03820
C233        C  0.45085997  0.46625131  0.10566228    -0.12330
C234        C  0.46296116  0.43390562  0.09613571     0.01320
C235        C  0.50542342  0.44645017  0.08329254    -0.10860
C236        C  0.03467329  0.99077602  0.07356456     0.03810
C237        C  0.02104656  0.02191146  0.07644935    -0.10280
H238        H  0.41785291  0.45628689  0.11486737     0.09400
H239        H  0.51430471  0.42153972  0.07407750     0.06930
H240        H  0.04281017  0.05522231  0.06294627     0.06780
C241        C  0.45614445  0.20323454  0.94336142     0.03820
C242        C  0.44758364  0.16615528  0.97628943    -0.12330
C243        C  0.48090581  0.15875425  0.99428054     0.01320
C244        C  0.02244297  0.19036001  0.48034258    -0.10860
C245        C  0.03214639  0.23352990  0.46698494     0.03810
C246        C  0.49850541  0.23970687  0.44454422    -0.10280
H247        H  0.41469698  0.14184203  0.98413165     0.09400
H248        H  0.04793588  0.18272878  0.48712557     0.06930
H249        H  0.50540042  0.27098016  0.42631805     0.06780
C250        C  0.21525000  0.46527693  0.46391679     0.03820
C251        C  0.19151232  0.47900118  0.49575606    -0.12330
C252        C  0.19479115  0.01977705  0.98821655     0.01320
C253        C  0.22577475  0.05029773  0.95263393    -0.10860
C254        C  0.25323256  0.03966889  0.92196821     0.03810
C255        C  0.24813046  0.99640538  0.42797069    -0.10280
H256        H  0.16616254  0.45587624  0.52286931     0.09400
H257        H  0.22640773  0.08142080  0.94611542     0.06930
H258        H  0.26738560  0.98660614  0.40320403     0.06780
Fe259      Fe  0.14073089  0.26672564  0.57107414     1.65780
Fe260      Fe  0.12849591  0.35724218  0.55010716     1.73250
Fe261      Fe  0.22923837  0.36718383  0.55542272     1.54410
O262        O  0.23756350  0.33189615  0.61795137    -0.80990
O263        O  0.16375295  0.39030009  0.47853218    -0.79290
O264        O  0.17915781  0.26937162  0.63888795    -0.83490
O265        O  0.18158690  0.25691346  0.51955663    -0.78350
O266        O  0.23164609  0.41349587  0.61522739    -0.80120
O267        O  0.08115472  0.30685675  0.50083549    -0.82870
C268        C  0.21759186  0.28238622  0.49795037     0.97900
C269        C  0.21830943  0.29680747  0.64655586     1.05340
O270        O  0.16623921  0.33057364  0.55956763    -1.11850
O271        O  0.08920442  0.32660513  0.62124448    -0.74280
O272        O  0.09759135  0.26791369  0.62683541    -0.77770
O273        O  0.23307392  0.32427664  0.49645972    -0.78460
C274        C  0.08007493  0.28969208  0.64352425     0.96800
O275        O  0.10063548  0.25534686  0.50379415    -0.76420
O276        O  0.16843675  0.40972072  0.60059251    -0.81610
C277        C  0.20352118  0.41865222  0.47497610     0.99420
C278        C  0.20500128  0.42743618  0.62410334     1.05340
O279        O  0.23210958  0.41075300  0.49379820    -0.77250
C280        C  0.07448760  0.26842339  0.48916698     1.03640
C281        C  0.24521027  0.29139663  0.68975871     0.03820
C282        C  0.27328385  0.33066220  0.71639235    -0.12330
C283        C  0.31426793  0.33905398  0.72900613     0.01320
C284        C  0.32656928  0.30771236  0.71790384    -0.10860
C285        C  0.29533959  0.26391316  0.71202877     0.03810
C286        C  0.25432564  0.25566325  0.69249757    -0.10280
H287        H  0.26498031  0.35651310  0.72148063     0.09400
H288        H  0.35936354  0.31610394  0.72692290     0.06930
H289        H  0.23092056  0.22318134  0.67902211     0.06780
C290        C  0.00245760  0.05374153  0.84730315     0.03820
C291        C  0.46268658  0.51589492  0.85428317    -0.12330
C292        C  0.45784968  0.47472735  0.84041752     0.01320
C293        C  0.49400315  0.46997188  0.83323411    -0.10860
C294        C  0.03391125  0.00696160  0.82436253     0.03810
C295        C  0.03741347  0.04873401  0.83015031    -0.10280
H296        H  0.43448321  0.51835130  0.86418266     0.09400
H297        H  0.49015670  0.43756818  0.82668258     0.06930
H298        H  0.06653809  0.07754126  0.81710529     0.06780
C299        C  0.05100841  0.27025107  0.69325173     0.03820
C300        C  0.06423024  0.24878888  0.73283763    -0.12330
C301        C  0.53774220  0.22479765  0.77716681     0.01320
C302        C  0.50113259  0.22770636  0.78720021    -0.10860
C303        C  0.48170931  0.23756395  0.74304094     0.03810
C304        C  0.50764215  0.26194321  0.69639211    -0.10280
H305        H  0.09327979  0.24694207  0.72621120     0.09400
H306        H  0.48184992  0.20962555  0.82295003     0.06930
H307        H  0.49388501  0.27126640  0.66207137     0.06780
C308        C  0.21320880  0.46367509  0.66525168     0.03820
C309        C  0.25340533  0.00249907  0.67502627    -0.12330
C310        C  0.25519571  0.03379253  0.71500057     0.01320
C311        C  0.21810262  0.02384667  0.74479626    -0.10860
C312        C  0.17768297  0.49377421  0.72593095     0.03810
C313        C  0.17621961  0.46045773  0.69155490    -0.10280
H314        H  0.28168292  0.00841508  0.65174140     0.09400
H315        H  0.22115035  0.04252681  0.78171024     0.06930
H316        H  0.14670880  0.43056465  0.68649037     0.06780
C317        C  0.06962064  0.00224464  0.79859611    -0.04650
C318        C  0.11204137  0.03060531  0.81410416    -0.01770
C319        C  0.14519950  0.03332186  0.78072826     0.03220
C320        C  0.13902207  0.49788309  0.74544844    -0.04650
C321        C  0.09631181  0.47060548  0.72694269    -0.01760
C322        C  0.06230873  0.47433262  0.75200713     0.03220
C323        C  0.12260708  0.05943557  0.86204765     0.37870
C324        C  0.08701474  0.44402831  0.67711054     0.37860
C325        C  0.02014659  0.45183476  0.72764119     0.36280
C326        C  0.17801792  0.07763924  0.76780723     0.36280
N327        N  0.98535576  0.43462414  0.71174424    -0.38540
N328        N  0.20244362  0.11357884  0.75685545    -0.38540
N329        N  0.07914040  0.42295414  0.63707220    -0.37980
N330        N  0.13169260  0.08245762  0.90028224    -0.37990
C331        C  0.50648660  0.09830348  0.84227517    -0.04650
C332        C  0.98128722  0.10493896  0.80221421    -0.01770
C333        C  0.99858463  0.14421143  0.77223046     0.03220
C334        C  0.53392098  0.18201894  0.79400873    -0.04650
C335        C  0.55602783  0.17772068  0.84028280    -0.01760
C336        C  0.54323645  0.13550373  0.86312803     0.03220
C337        C  0.93585219  0.07529225  0.79705739     0.37870
C338        C  0.59247066  0.21616996  0.86261956     0.37860
C339        C  0.56590401  0.13035295  0.91029399     0.36280
C340        C  0.97820178  0.14601973  0.72037810     0.36280
N341        N  0.58340034  0.12625081  0.94869614    -0.38540
N342        N  0.96168171  0.14705319  0.67917756    -0.38540
N343        N  0.62188555  0.24687505  0.88005810    -0.37980
N344        N  0.89924296  0.05311178  0.79311742    -0.37990
C345        C  0.34326337  0.37671767  0.76311720    -0.04650
C346        C  0.36438474  0.41883321  0.74010632    -0.01770
C347        C  0.40153278  0.45091519  0.76615256     0.03220
C348        C  0.41695636  0.44108280  0.81617170    -0.04650
C349        C  0.39531935  0.39812494  0.83815471    -0.01760
C350        C  0.35668439  0.36772142  0.81433499     0.03220
C351        C  0.34864794  0.42825365  0.68872571     0.37870
C352        C  0.41497274  0.38218318  0.87822154     0.37860
C353        C  0.33051448  0.32577215  0.84067853     0.36280
C354        C  0.42695136  0.49140058  0.73629951     0.36280
N355        N  0.30713843  0.29205842  0.85960992    -0.38540
N356        N  0.44671971  0.52321659  0.71087149    -0.38540
N357        N  0.42957206  0.36664531  0.90789983    -0.37980
N358        N  0.33522238  0.43520441  0.64815909    -0.37990
C359        C  0.15664123  0.02275039  0.00401243    -0.04650
C360        C  0.15484824  0.54185023  0.55503448    -0.01770
C361        C  0.11488833  0.53298154  0.57703810     0.03220
C362        C  0.07699375  0.00373815  0.04887689    -0.04650
C363        C  0.07931550  0.98700713  0.99621550    -0.01760
C364        C  0.11887703  0.99632030  0.97386956     0.03220
C365        C  0.19362396  0.56787420  0.58653036     0.37870
C366        C  0.04094319  0.95852383  0.96570188     0.37860
C367        C  0.12045324  0.97476000  0.92252867     0.36280
C368        C  0.11266439  0.55250379  0.62947090     0.36280
N369        N  0.12184755  0.95701272  0.88241106    -0.38540
N370        N  0.11084243  0.56837866  0.67105628    -0.38620
N371        N  0.01061160  0.93490797  0.94142041    -0.37980
N372        N  0.22448623  0.58850774  0.61190125    -0.37990
C373        C  0.46518898  0.04394894  0.08628331    -0.04650
C374        C  0.99363685  0.08589828  0.60578233    -0.01770
C375        C  0.99970162  0.12288351  0.57515434     0.03220
C376        C  0.47328211  0.11899004  0.02836588    -0.04650
C377        C  0.43974567  0.07651917  0.01504054    -0.01760
C378        C  0.43444061  0.03952580  0.04600372     0.03220
C379        C  0.02076551  0.09066650  0.65382472     0.37870
C380        C  0.41362512  0.06943139  0.96566366     0.37860
C381        C  0.39646973  0.99775388  0.03721088     0.36280
C382        C  0.03836308  0.16245358  0.58783525     0.36280
N383        N  0.36514350  0.96531071  0.02965739    -0.38540
N384        N  0.07221953  0.18993691  0.59839162    -0.38540
N385        N  0.39270511  0.06345961  0.92630098    -0.37980
N386        N  0.04213868  0.09459591  0.69209617    -0.37990
C387        C  0.35591446  0.31440215  0.04419828    -0.04650
C388        C  0.36837086  0.35458581  0.01564980    -0.01770
C389        C  0.40678229  0.39130710  0.02888673     0.03220
C390        C  0.42940582  0.39087248  0.07668989    -0.04650
C391        C  0.41873770  0.35066793  0.60379039    -0.01760
C392        C  0.38231661  0.31193575  0.58623686     0.03220
C393        C  0.34095043  0.35986898  0.97507242     0.37870
C394        C  0.44525008  0.34851203  0.64806310     0.37860
C395        C  0.37145546  0.27002288  0.61198669     0.36280
C396        C  0.42389321  0.42978474  0.99257187     0.36280
N397        N  0.36301373  0.23649044  0.63218935    -0.38540
N398        N  0.43853120  0.46064412  0.96410098    -0.38540
N399        N  0.46602985  0.34545144  0.68306726    -0.37980
N400        N  0.31934078  0.36596981  0.94438287    -0.37990
Fe401      Fe  0.36415618  0.62844060  0.31167475     1.65780
Fe402      Fe  0.27666160  0.64424006  0.30011978     1.73250
Fe403      Fe  0.37507209  0.73161873  0.32406472     1.54410
O404        O  0.41716412  0.72818385  0.38330174    -0.80990
O405        O  0.27891734  0.69127857  0.24360988    -0.79290
O406        O  0.40277189  0.65884294  0.37952628    -0.83490
O407        O  0.41430163  0.67368765  0.25846743    -0.78350
O408        O  0.33579689  0.72852926  0.38841723    -0.80120
O409        O  0.27953674  0.60892483  0.23143661    -0.82870
C410        C  0.43414041  0.71568541  0.24951671     0.97900
C411        C  0.42311161  0.69696610  0.40031546     1.05340
O412        O  0.33877359  0.66809414  0.31147701    -1.11850
O413        O  0.26357096  0.59362323  0.35532442    -0.74280
O414        O  0.31884216  0.58201323  0.36811562    -0.77770
O415        O  0.41801398  0.74004025  0.26110641    -0.78460
C416        C  0.28048057  0.57298685  0.37872872     0.96800
O417        O  0.32655802  0.58598320  0.24694727    -0.76420
O418        O  0.26862913  0.67860666  0.36840147    -0.81610
C419        C  0.30553452  0.73166980  0.24104385     0.99420
C420        C  0.29590165  0.70932927  0.39923129     1.05340
O421        O  0.34044086  0.74750349  0.26822224    -0.77250
C422        C  0.29062326  0.57929114  0.22819451     1.03640
C423        C  0.28351731  0.72661486  0.44944368     0.03820
C424        C  0.31581808  0.74638268  0.49015900    -0.12330
C425        C  0.31524744  0.77599396  0.52830599     0.01320
C426        C  0.27915664  0.78041818  0.03357787    -0.10860
C427        C  0.24772397  0.76461841  0.99250920     0.03810
C428        C  0.24857300  0.73585297  0.95073570    -0.10280
H429        H  0.34484859  0.74398927  0.48714930     0.09400
H430        H  0.27986812  0.80359369  0.06416977     0.06930
H431        H  0.22507236  0.72428710  0.91757984     0.06780
C432        C  0.97898402  0.51007107  0.59221787     0.03820
C433        C  0.45086284  0.96624966  0.60566083    -0.12330
C434        C  0.46296558  0.93390503  0.59613461     0.01320
C435        C  0.50542792  0.94645107  0.58329029    -0.10860
C436        C  0.03467034  0.49077493  0.57356888     0.03810
C437        C  0.02104534  0.52191163  0.57645450    -0.10280
H438        H  0.41785565  0.95628421  0.61486664     0.09400
H439        H  0.51431021  0.92154141  0.57407511     0.06930
H440        H  0.04281025  0.55522232  0.56295221     0.06780
C441        C  0.45614771  0.70323577  0.44336011     0.03820
C442        C  0.44758806  0.66615735  0.47628890    -0.12330
C443        C  0.48091075  0.65875549  0.49427503     0.01320
C444        C  0.02244717  0.69036001  0.98033230    -0.10860
C445        C  0.03215047  0.73353023  0.96697753     0.03810
C446        C  0.49850889  0.73970782  0.94454031    -0.10280
H447        H  0.41470168  0.64184501  0.48413496     0.09400
H448        H  0.04794013  0.68272831  0.98711113     0.06930
H449        H  0.50540342  0.77098130  0.92631523     0.06780
C450        C  0.21525255  0.96527690  0.96391657     0.03820
C451        C  0.19151510  0.97900165  0.99575568    -0.12330
C452        C  0.19478778  0.51977628  0.48821704     0.01320
C453        C  0.22577116  0.55029729  0.45263423    -0.10860
C454        C  0.25322991  0.53966916  0.42196929     0.03810
C455        C  0.24812818  0.49640581  0.92797167    -0.10280
H456        H  0.16616521  0.95587700  0.02286903     0.09400
H457        H  0.22640372  0.58142015  0.44611564     0.06930
H458        H  0.26738386  0.48660700  0.90320550     0.06780
Fe459      Fe  0.14073309  0.76672389  0.07107127     1.65780
Fe460      Fe  0.12849714  0.85724013  0.05010585     1.73250
Fe461      Fe  0.22924022  0.86718401  0.05542459     1.54410
O462        O  0.23756438  0.83189669  0.11795435    -0.80990
O463        O  0.16375489  0.89030034  0.97853231    -0.79290
O464        O  0.17915984  0.76936928  0.13888531    -0.83490
O465        O  0.18159040  0.75691363  0.01955401    -0.78350
O466        O  0.23164595  0.91349621  0.11522790    -0.80120
O467        O  0.08115763  0.80685578  0.00083189    -0.82870
C468        C  0.21759697  0.78238698  0.99795230     0.97900
C469        C  0.21831070  0.79680655  0.14655622     1.05340
O470        O  0.16624101  0.83057235  0.05956664    -1.11850
O471        O  0.08920558  0.82660096  0.12124217    -0.74280
O472        O  0.09759126  0.76790834  0.12683268    -0.77770
O473        O  0.23307964  0.82427753  0.99646399    -0.78460
C474        C  0.08007564  0.78968764  0.14352167     0.96800
O475        O  0.10063828  0.75534584  0.00379052    -0.76420
O476        O  0.16843575  0.90971847  0.10059244    -0.81610
C477        C  0.20352331  0.91865202  0.97497630     0.99420
C478        C  0.20500022  0.92743541  0.12410322     1.05340
O479        O  0.23211148  0.91075235  0.99379850    -0.77250
C480        C  0.07449097  0.76842286  0.98916221     1.03640
C481        C  0.24521143  0.79139527  0.18975890     0.03820
C482        C  0.27328473  0.83066058  0.21639317    -0.12330
C483        C  0.31426924  0.83905307  0.22900529     0.01320
C484        C  0.32657121  0.80771207  0.21790198    -0.10860
C485        C  0.29534186  0.76391275  0.21202692     0.03810
C486        C  0.25432756  0.75566235  0.19249644    -0.10280
H487        H  0.26498076  0.85651107  0.22148266     0.09400
H488        H  0.35936565  0.81610403  0.22692062     0.06930
H489        H  0.23092274  0.72318043  0.17902073     0.06780
C490        C  0.00246033  0.55374204  0.34730275     0.03820
C491        C  0.46268441  0.01589390  0.35428544    -0.12330
C492        C  0.45784821  0.97472651  0.34042026     0.01320
C493        C  0.49400201  0.96997188  0.33323592    -0.10860
C494        C  0.03391330  0.50696122  0.32436376     0.03810
C495        C  0.03741621  0.54873387  0.33015175    -0.10280
H496        H  0.43448082  0.01834976  0.36418540     0.09400
H497        H  0.49015615  0.93756835  0.32668534     0.06930
H498        H  0.06654158  0.57754091  0.31710826     0.06780
C499        C  0.05101032  0.77024842  0.19325041     0.03820
C500        C  0.06423392  0.74878909  0.23283803    -0.12330
C501        C  0.53774713  0.72479940  0.27716889     0.01320
C502        C  0.50113728  0.72770791  0.28720246    -0.10860
C503        C  0.48171247  0.73756310  0.24304257     0.03810
C504        C  0.50764399  0.76194018  0.19639172    -0.10280
H505        H  0.09328365  0.74694264  0.22621139     0.09400
H506        H  0.48185539  0.70962803  0.32295333     0.06930
H507        H  0.49388573  0.77126119  0.16207017     0.06780
C508        C  0.21320684  0.96367522  0.16524987     0.03820
C509        C  0.25340737  0.50249889  0.17502767    -0.12330
C510        C  0.25519846  0.53379135  0.21500407     0.01320
C511        C  0.21810581  0.52384469  0.24480157    -0.10860
C512        C  0.17767997  0.99377556  0.22592555     0.03810
C513        C  0.17621716  0.96045858  0.19155085    -0.10280
H514        H  0.28168443  0.50841569  0.15174087     0.09400
H515        H  0.22115391  0.54252443  0.28171619     0.06930
H516        H  0.14670653  0.93056546  0.18648610     0.06780
C517        C  0.06962316  0.50224398  0.29859920    -0.04650
C518        C  0.11204360  0.53060334  0.31410985    -0.01770
C519        C  0.14520252  0.53331988  0.28073548     0.03220
C520        C  0.13901886  0.99788421  0.24544283    -0.04650
C521        C  0.09630815  0.97060482  0.22693992    -0.01760
C522        C  0.06230518  0.97433160  0.25200545     0.03220
C523        C  0.12260835  0.55943305  0.36205374     0.37870
C524        C  0.08701008  0.94402519  0.17710999     0.37860
C525        C  0.02014186  0.95183028  0.22764291     0.36280
C526        C  0.17802142  0.57763740  0.26781632     0.36280
N527        N  0.98535038  0.93461621  0.21174810    -0.38540
N528        N  0.20244715  0.61357736  0.25686626    -0.38540
N529        N  0.07913502  0.92294886  0.13707357    -0.37980
N530        N  0.13169336  0.58245481  0.40028857    -0.37990
C531        C  0.50649036  0.59830448  0.34227511    -0.04650
C532        C  0.98129150  0.60494089  0.30221424    -0.01770
C533        C  0.99858972  0.64421348  0.27223085     0.03220
C534        C  0.53392582  0.68202055  0.29401014    -0.04650
C535        C  0.55603263  0.67772148  0.34028368    -0.01760
C536        C  0.54324067  0.63550418  0.36312818     0.03220
C537        C  0.93585617  0.57529566  0.29705789     0.37870
C538        C  0.59247641  0.71617011  0.36261997     0.37860
C539        C  0.56590796  0.63035249  0.41029381     0.36280
C540        C  0.97820825  0.64602241  0.22037750     0.36280
N541        N  0.58340391  0.62624965  0.44869590    -0.38540
N542        N  0.96168978  0.64705673  0.17917587    -0.38540
N543        N  0.62189215  0.74687455  0.38005817    -0.37980
N544        N  0.89924673  0.55311648  0.29311827    -0.37990
C545        C  0.34326416  0.87671650  0.26311678    -0.04650
C546        C  0.36438567  0.91883202  0.24010612    -0.01770
C547        C  0.40153291  0.95091406  0.26615354     0.03220
C548        C  0.41695551  0.94108175  0.31617358    -0.04650
C549        C  0.39531877  0.89812364  0.33815584    -0.01760
C550        C  0.35668438  0.86772007  0.31433500     0.03220
C551        C  0.34865005  0.92825233  0.18872435     0.37870
C552        C  0.41497243  0.88218167  0.37822200     0.37860
C553        C  0.33051405  0.82577064  0.34067768     0.36280
C554        C  0.42695206  0.99139921  0.23630048     0.36280
N555        N  0.30713711  0.79205662  0.35960747    -0.38540
N556        N  0.44672067  0.02321494  0.21087213    -0.38540
N557        N  0.42957240  0.86664401  0.40789955    -0.37980
N558        N  0.33522557  0.93520306  0.14815670    -0.37990
C559        C  0.15663773  0.52274893  0.50401442    -0.04650
C560        C  0.15485121  0.04185198  0.05503195    -0.01770
C561        C  0.11489109  0.03298370  0.07703424     0.03220
C562        C  0.07699064  0.50373615  0.54888123    -0.04650
C563        C  0.07931184  0.48700538  0.49621946    -0.01760
C564        C  0.11887301  0.49631795  0.47387295     0.03220
C565        C  0.19362660  0.06787621  0.08652829     0.37870
C566        C  0.04093932  0.45852370  0.46570531     0.37860
C567        C  0.12044821  0.47475598  0.42253308     0.36280
C568        C  0.11266645  0.05250645  0.12946622     0.36280
N569        N  0.12184158  0.45700718  0.38241645    -0.38540
N570        N  0.11084370  0.06838172  0.17105083    -0.38620
N571        N  0.01060754  0.43490944  0.44142306    -0.37980
N572        N  0.22448869  0.08851010  0.11189936    -0.37990
C573        C  0.46518980  0.54395212  0.58628604    -0.04650
C574        C  0.99364009  0.58590194  0.10578174    -0.01770
C575        C  0.99970885  0.62288630  0.07514829     0.03220
C576        C  0.47328773  0.61899222  0.52836143    -0.04650
C577        C  0.43974851  0.57652183  0.51504022    -0.01760
C578        C  0.43444160  0.53952909  0.54600628     0.03220
C579        C  0.02076795  0.59067069  0.15382511     0.37870
C580        C  0.41362702  0.56943340  0.46566407     0.37860
C581        C  0.39646950  0.49775781  0.53721522     0.36280
C582        C  0.03837584  0.66245401  0.08781998     0.36280
N583        N  0.36514257  0.46531511  0.52966277    -0.38540
N584        N  0.07223561  0.68993562  0.09836654    -0.38540
N585        N  0.39270620  0.56346107  0.42630209    -0.37980
N586        N  0.04214066  0.59460042  0.19209719    -0.37990
C587        C  0.35591851  0.81440076  0.54420164    -0.04650
C588        C  0.36837405  0.85458402  0.51565258    -0.01770
C589        C  0.40678582  0.89130545  0.52888755     0.03220
C590        C  0.42941108  0.89087137  0.57668895    -0.04650
C591        C  0.41874559  0.85066685  0.10378749    -0.01760
C592        C  0.38232313  0.81193458  0.08623705     0.03220
C593        C  0.34095297  0.85986642  0.47507556     0.37870
C594        C  0.44526330  0.84851108  0.14805287     0.37860
C595        C  0.37146346  0.77002197  0.11198648     0.36280
C596        C  0.42389597  0.92978257  0.49257195     0.36280
N597        N  0.36302300  0.73648987  0.13218912    -0.38540
N598        N  0.43853380  0.96064179  0.46410081    -0.38540
N599        N  0.46604834  0.84545142  0.18305025    -0.37980
N600        N  0.31934303  0.86596666  0.44438586    -0.37990
Fe601      Fe  0.36415621  0.62844062  0.81167475     1.65780
Fe602      Fe  0.27666162  0.64424006  0.80011979     1.73250
Fe603      Fe  0.37507210  0.73161874  0.82406472     1.54410
O604        O  0.41716414  0.72818387  0.88330174    -0.80990
O605        O  0.27891735  0.69127858  0.74360989    -0.79290
O606        O  0.40277190  0.65884295  0.87952629    -0.83490
O607        O  0.41430167  0.67368769  0.75846744    -0.78350
O608        O  0.33579691  0.72852926  0.88841724    -0.80120
O609        O  0.27953677  0.60892484  0.73143661    -0.82870
C610        C  0.43414044  0.71568544  0.74951672     0.97900
C611        C  0.42311163  0.69696612  0.90031546     1.05340
O612        O  0.33877361  0.66809416  0.81147701    -1.11850
O613        O  0.26357099  0.59362324  0.85532443    -0.74280
O614        O  0.31884219  0.58201324  0.86811560    -0.77770
O615        O  0.41801399  0.74004028  0.76110641    -0.78460
C616        C  0.28048060  0.57298686  0.87872871     0.96800
O617        O  0.32655806  0.58598323  0.74694726    -0.76420
O618        O  0.26862915  0.67860666  0.86840148    -0.81610
C619        C  0.30553451  0.73166981  0.74104387     0.99420
C620        C  0.29590167  0.70932928  0.89923131     1.05340
O621        O  0.34044086  0.74750350  0.76822226    -0.77250
C622        C  0.29062329  0.57929116  0.72819452     1.03640
C623        C  0.28351733  0.72661486  0.94944370     0.03820
C624        C  0.31581810  0.74638267  0.99015901    -0.12330
C625        C  0.31524747  0.77599397  0.02830600     0.01320
C626        C  0.27915661  0.78041817  0.53357786    -0.10860
C627        C  0.24772395  0.76461840  0.49250918     0.03810
C628        C  0.24857298  0.73585297  0.45073567    -0.10280
H629        H  0.34484861  0.74398926  0.98714931     0.09400
H630        H  0.27986808  0.80359367  0.56416976     0.06930
H631        H  0.22507234  0.72428709  0.41757981     0.06780
C632        C  0.97898404  0.51007105  0.09221784     0.03820
C633        C  0.45086287  0.96624964  0.10566080    -0.12330
C634        C  0.46296564  0.93390503  0.09613456     0.01320
C635        C  0.50542798  0.94645110  0.08329024    -0.10860
C636        C  0.03467040  0.49077498  0.07356882     0.03810
C637        C  0.02104537  0.52191166  0.07645447    -0.10280
H638        H  0.41785568  0.95628417  0.11486661     0.09400
H639        H  0.51431029  0.92154145  0.07407504     0.06930
H640        H  0.04281026  0.55522236  0.06295219     0.06780
C641        C  0.45614772  0.70323579  0.94336012     0.03820
C642        C  0.44758807  0.66615737  0.97628891    -0.12330
C643        C  0.48091076  0.65875551  0.99427503     0.01320
C644        C  0.02244721  0.69036004  0.48033215    -0.10860
C645        C  0.03215049  0.73353026  0.46697743     0.03810
C646        C  0.49850888  0.73970780  0.44454032    -0.10280
H647        H  0.41470170  0.64184503  0.98413497     0.09400
H648        H  0.04794017  0.68272834  0.48711090     0.06930
H649        H  0.50540341  0.77098128  0.42631524     0.06780
C650        C  0.21525255  0.96527691  0.46391656     0.03820
C651        C  0.19151510  0.97900165  0.49575568    -0.12330
C652        C  0.19478786  0.51977633  0.98821708     0.01320
C653        C  0.22577124  0.55029733  0.95263426    -0.10860
C654        C  0.25322996  0.53966917  0.92196929     0.03810
C655        C  0.24812816  0.49640581  0.42797168    -0.10280
H656        H  0.16616521  0.95587701  0.52286904     0.09400
H657        H  0.22640381  0.58142019  0.94611569     0.06930
H658        H  0.26738386  0.48660701  0.40320554     0.06780
Fe659      Fe  0.14073306  0.76672388  0.57107123     1.65780
Fe660      Fe  0.12849714  0.85724014  0.55010584     1.73250
Fe661      Fe  0.22924021  0.86718399  0.55542458     1.54410
O662        O  0.23756435  0.83189665  0.61795433    -0.80990
O663        O  0.16375489  0.89030034  0.47853230    -0.79290
O664        O  0.17915979  0.76936925  0.63888530    -0.83490
O665        O  0.18159039  0.75691363  0.51955400    -0.78350
O666        O  0.23164593  0.91349619  0.61522791    -0.80120
O667        O  0.08115762  0.80685579  0.50083187    -0.82870
C668        C  0.21759695  0.78238698  0.49795227     0.97900
C669        C  0.21831066  0.79680652  0.64655621     1.05340
O670        O  0.16624099  0.83057234  0.55956663    -1.11850
O671        O  0.08920559  0.82660096  0.62124217    -0.74280
O672        O  0.09759118  0.76790828  0.62683260    -0.77770
O673        O  0.23307961  0.82427752  0.49646395    -0.78460
C674        C  0.08007560  0.78968761  0.64352163     0.96800
O675        O  0.10063830  0.75534587  0.50379043    -0.76420
O676        O  0.16843575  0.90971846  0.60059243    -0.81610
C677        C  0.20352331  0.91865203  0.47497630     0.99420
C678        C  0.20500021  0.92743540  0.62410323     1.05340
O679        O  0.23211147  0.91075235  0.49379851    -0.77250
C680        C  0.07449098  0.76842288  0.48916214     1.03640
C681        C  0.24521140  0.79139525  0.68975891     0.03820
C682        C  0.27328468  0.83066057  0.71639318    -0.12330
C683        C  0.31426919  0.83905307  0.72900532     0.01320
C684        C  0.32657118  0.80771207  0.71790202    -0.10860
C685        C  0.29534184  0.76391275  0.71202696     0.03810
C686        C  0.25432754  0.75566234  0.69249646    -0.10280
H687        H  0.26498071  0.85651105  0.72148266     0.09400
H688        H  0.35936562  0.81610405  0.72692067     0.06930
H689        H  0.23092273  0.72318042  0.67902074     0.06780
C690        C  0.00246036  0.55374209  0.84730268     0.03820
C691        C  0.46268442  0.01589395  0.85428536    -0.12330
C692        C  0.45784821  0.97472655  0.84042019     0.01320
C693        C  0.49400201  0.96997192  0.83323587    -0.10860
C694        C  0.03391333  0.50696126  0.82436371     0.03810
C695        C  0.03741624  0.54873392  0.83015171    -0.10280
H696        H  0.43448083  0.01834981  0.86418532     0.09400
H697        H  0.49015614  0.93756838  0.82668531     0.06930
H698        H  0.06654162  0.57754096  0.81710825     0.06780
C699        C  0.05101032  0.77024843  0.69325039     0.03820
C700        C  0.06423395  0.74878916  0.73283804    -0.12330
C701        C  0.53774716  0.72479944  0.77716891     0.01320
C702        C  0.50113730  0.72770794  0.78720247    -0.10860
C703        C  0.48171250  0.73756314  0.74304259     0.03810
C704        C  0.50764402  0.76194022  0.69639174    -0.10280
H705        H  0.09328369  0.74694273  0.72621139     0.09400
H706        H  0.48185542  0.70962807  0.82295335     0.06930
H707        H  0.49388575  0.77126122  0.66207019     0.06780
C708        C  0.21320683  0.96367520  0.66524988     0.03820
C709        C  0.25340741  0.50249890  0.67502769    -0.12330
C710        C  0.25519850  0.53379136  0.71500409     0.01320
C711        C  0.21810585  0.52384470  0.74480160    -0.10860
C712        C  0.17767996  0.99377554  0.72592557     0.03810
C713        C  0.17621716  0.96045856  0.69155086    -0.10280
H714        H  0.28168447  0.50841570  0.65174088     0.09400
H715        H  0.22115395  0.54252444  0.78171621     0.06930
H716        H  0.14670652  0.93056544  0.68648611     0.06780
C717        C  0.06962319  0.50224402  0.79859918    -0.04650
C718        C  0.11204363  0.53060337  0.81410984    -0.01770
C719        C  0.14520255  0.53331990  0.78073549     0.03220
C720        C  0.13901886  0.99788419  0.74544284    -0.04650
C721        C  0.09630815  0.97060480  0.72693993    -0.01760
C722        C  0.06230517  0.97433159  0.75200545     0.03220
C723        C  0.12260838  0.55943310  0.86205372     0.37870
C724        C  0.08701008  0.94402517  0.67711001     0.37860
C725        C  0.02014186  0.95183027  0.72764291     0.36280
C726        C  0.17802145  0.57763742  0.76781631     0.36280
N727        N  0.98535038  0.93461620  0.71174810    -0.38540
N728        N  0.20244718  0.61357737  0.75686624    -0.38540
N729        N  0.07913501  0.92294883  0.63707359    -0.37980
N730        N  0.13169339  0.58245487  0.90028854    -0.37990
C731        C  0.50649037  0.59830450  0.84227507    -0.04650
C732        C  0.98129157  0.60494096  0.80221415    -0.01770
C733        C  0.99858980  0.64421357  0.77223079     0.03220
C734        C  0.53392585  0.68202058  0.79401014    -0.04650
C735        C  0.55603265  0.67772150  0.84028367    -0.01760
C736        C  0.54324069  0.63550419  0.86312816     0.03220
C737        C  0.93585623  0.57529576  0.79705779     0.37870
C738        C  0.59247643  0.71617012  0.86261998     0.37860
C739        C  0.56590796  0.63035249  0.91029380     0.36280
C740        C  0.97820837  0.64602252  0.72037741     0.36280
N741        N  0.58340390  0.62624964  0.94869588    -0.38540
N742        N  0.96168994  0.64705686  0.67917576    -0.38540
N743        N  0.62189217  0.74687455  0.88005819    -0.37980
N744        N  0.89924679  0.55311660  0.79311816    -0.37990
C745        C  0.34326412  0.87671652  0.76311679    -0.04650
C746        C  0.36438563  0.91883203  0.74010611    -0.01770
C747        C  0.40153288  0.95091408  0.76615351     0.03220
C748        C  0.41695550  0.94108179  0.81617354    -0.04650
C749        C  0.39531878  0.89812368  0.83815580    -0.01760
C750        C  0.35668437  0.86772010  0.81433500     0.03220
C751        C  0.34864998  0.92825233  0.68872435     0.37870
C752        C  0.41497246  0.88218172  0.87822194     0.37860
C753        C  0.33051407  0.82577067  0.84067771     0.36280
C754        C  0.42695201  0.99139923  0.73630043     0.36280
N755        N  0.30713715  0.79205665  0.85960752    -0.38540
N756        N  0.44672061  0.02321496  0.71087208    -0.38540
N757        N  0.42957246  0.86664407  0.90789947    -0.37980
N758        N  0.33522550  0.93520304  0.64815670    -0.37990
C759        C  0.15663781  0.52274899  0.00401443    -0.04650
C760        C  0.15485121  0.04185197  0.55503195    -0.01770
C761        C  0.11489109  0.03298369  0.57703424     0.03220
C762        C  0.07699071  0.50373623  0.04888117    -0.04650
C763        C  0.07931193  0.48700548  0.99621940    -0.01760
C764        C  0.11887310  0.49631804  0.97387292     0.03220
C765        C  0.19362660  0.06787621  0.58652829     0.37870
C766        C  0.04093941  0.45852382  0.96570522     0.37860
C767        C  0.12044831  0.47475607  0.92253306     0.36280
C768        C  0.11266644  0.05250643  0.62946623     0.36280
N769        N  0.12184169  0.45700726  0.88241644    -0.38540
N770        N  0.11084370  0.06838170  0.67105084    -0.38620
N771        N  0.01060764  0.43490958  0.94142295    -0.37980
N772        N  0.22448869  0.08851010  0.61189936    -0.37990
C773        C  0.46518981  0.54395214  0.08628605    -0.04650
C774        C  0.99364014  0.58590200  0.60578167    -0.01770
C775        C  0.99970895  0.62288634  0.57514816     0.03220
C776        C  0.47328775  0.61899223  0.02836143    -0.04650
C777        C  0.43974853  0.57652185  0.01504023    -0.01760
C778        C  0.43444161  0.53952911  0.04600629     0.03220
C779        C  0.02076799  0.59067075  0.65382506     0.37870
C780        C  0.41362703  0.56943342  0.96566407     0.37860
C781        C  0.39646950  0.49775783  0.03721523     0.36280
C782        C  0.03837601  0.66245403  0.58781972     0.36280
N783        N  0.36514257  0.46531514  0.02966278    -0.38540
N784        N  0.07223582  0.68993561  0.59836615    -0.38540
N785        N  0.39270622  0.56346109  0.92630209    -0.37980
N786        N  0.04214069  0.59460048  0.69209716    -0.37990
C787        C  0.35591855  0.81440076  0.04420163    -0.04650
C788        C  0.36837409  0.85458402  0.01565256    -0.01770
C789        C  0.40678587  0.89130545  0.02888750     0.03220
C790        C  0.42941116  0.89087136  0.07668888    -0.04650
C791        C  0.41874550  0.85066686  0.60378758    -0.01760
C792        C  0.38232306  0.81193458  0.58623710     0.03220
C793        C  0.34095300  0.85986644  0.97507557     0.37870
C794        C  0.44526316  0.84851108  0.64805303     0.37860
C795        C  0.37146339  0.77002197  0.61198653     0.36280
C796        C  0.42389601  0.92978257  0.99257191     0.36280
N797        N  0.36302292  0.73648986  0.63218916    -0.38540
N798        N  0.43853384  0.96064179  0.96410077    -0.38540
N799        N  0.46604815  0.84545141  0.68305048    -0.37980
N800        N  0.31934305  0.86596668  0.94438590    -0.37990
Fe801      Fe  0.86415545  0.12844176  0.31167058     1.65780
Fe802      Fe  0.77665896  0.14423863  0.30011952     1.73250
Fe803      Fe  0.87506852  0.23161851  0.32406752     1.54410
O804        O  0.91715809  0.22818267  0.38330802    -0.80990
O805        O  0.77891386  0.19127885  0.24361297    -0.79290
O806        O  0.90277481  0.15884501  0.37951885    -0.83490
O807        O  0.91429702  0.17368889  0.25845880    -0.78350
O808        O  0.83579110  0.22852785  0.38841699    -0.80120
O809        O  0.77953609  0.10892665  0.23143385    -0.82870
C810        C  0.93413748  0.21568748  0.24951475     0.97900
C811        C  0.92310975  0.19696603  0.40031513     1.05340
O812        O  0.83877127  0.16809407  0.31147712    -1.11850
O813        O  0.76357038  0.09362039  0.35532125    -0.74280
O814        O  0.81884436  0.08201496  0.36811451    -0.77770
O815        O  0.91801350  0.24004309  0.26111245    -0.78460
C816        C  0.78048188  0.07298612  0.37872652     0.96800
O817        O  0.82655495  0.08598248  0.24694605    -0.76420
O818        O  0.76862418  0.17860232  0.36840317    -0.81610
C819        C  0.80553185  0.23166986  0.24104560     0.99420
C820        C  0.79589604  0.20932661  0.39923163     1.05340
O821        O  0.84043879  0.24750326  0.26822265    -0.77250
C822        C  0.79062104  0.07929181  0.22819213     1.03640
C823        C  0.78351169  0.22661303  0.44944320     0.03820
C824        C  0.81581329  0.24638268  0.49015729    -0.12330
C825        C  0.81524338  0.27599567  0.52830197     0.01320
C826        C  0.77915292  0.28042014  0.03357344    -0.10860
C827        C  0.74771922  0.26461830  0.99250639     0.03810
C828        C  0.74856744  0.23585127  0.95073450    -0.10280
H829        H  0.84484368  0.24398902  0.48714822     0.09400
H830        H  0.77986503  0.30359670  0.06416405     0.06930
H831        H  0.72506611  0.22428404  0.91757945     0.06780
C832        C  0.47898509  0.01006933  0.59221399     0.03820
C833        C  0.95085994  0.46625132  0.60566232    -0.12330
C834        C  0.96296111  0.43390561  0.59613578     0.01320
C835        C  0.00542337  0.44645014  0.58329260    -0.10860
C836        C  0.53467327  0.99077600  0.57356459     0.03810
C837        C  0.52104655  0.02191145  0.57644938    -0.10280
H838        H  0.91785289  0.45628692  0.61486740     0.09400
H839        H  0.01430464  0.42153968  0.57407759     0.06930
H840        H  0.54281017  0.05522229  0.56294630     0.06780
C841        C  0.95614446  0.20323455  0.44336145     0.03820
C842        C  0.94758365  0.16615530  0.47628945    -0.12330
C843        C  0.98090583  0.15875427  0.49428056     0.01320
C844        C  0.52244295  0.19035997  0.98034256    -0.10860
C845        C  0.53214639  0.23352987  0.96698492     0.03810
C846        C  0.99850541  0.23970685  0.94454421    -0.10280
H847        H  0.91469700  0.14184204  0.48413168     0.09400
H848        H  0.54793586  0.18272874  0.98712556     0.06930
H849        H  0.00540042  0.27098014  0.92631803     0.06780
C850        C  0.71525001  0.46527693  0.96391679     0.03820
C851        C  0.69151235  0.47900119  0.99575607    -0.12330
C852        C  0.69479111  0.01977702  0.48821653     0.01320
C853        C  0.72577471  0.05029772  0.45263392    -0.10860
C854        C  0.75323255  0.03966889  0.42196822     0.03810
C855        C  0.74813046  0.99640538  0.92797070    -0.10280
H856        H  0.66616257  0.45587626  0.02286932     0.09400
H857        H  0.72640769  0.08142079  0.44611540     0.06930
H858        H  0.76738559  0.98660613  0.90320402     0.06780
Fe859      Fe  0.64073091  0.26672563  0.07107415     1.65780
Fe860      Fe  0.62849590  0.35724215  0.05010714     1.73250
Fe861      Fe  0.72923837  0.36718383  0.05542271     1.54410
O862        O  0.73756352  0.33189618  0.11795139    -0.80990
O863        O  0.66375295  0.39030009  0.97853218    -0.79290
O864        O  0.67915786  0.26937162  0.13888793    -0.83490
O865        O  0.68158689  0.25691345  0.01955659    -0.78350
O866        O  0.73164608  0.41349589  0.11522736    -0.80120
O867        O  0.58115473  0.30685673  0.00083544    -0.82870
C868        C  0.71759188  0.28238621  0.99795038     0.97900
C869        C  0.71830946  0.29680749  0.14655585     1.05340
O870        O  0.66623922  0.33057362  0.05956761    -1.11850
O871        O  0.58920439  0.32660508  0.12124444    -0.74280
O872        O  0.59759141  0.26791370  0.12683547    -0.77770
O873        O  0.73307394  0.32427664  0.99645975    -0.78460
C874        C  0.58007495  0.28969205  0.14352427     0.96800
O875        O  0.60063545  0.25534680  0.00379422    -0.76420
O876        O  0.66843672  0.40972068  0.10059251    -0.81610
C877        C  0.70352118  0.41865222  0.97497609     0.99420
C878        C  0.70500126  0.42743617  0.12410332     1.05340
O879        O  0.73210958  0.41075298  0.99379817    -0.77250
C880        C  0.57448759  0.26842335  0.98916698     1.03640
C881        C  0.74521031  0.29139665  0.18975869     0.03820
C882        C  0.77328389  0.33066222  0.21639233    -0.12330
C883        C  0.81426797  0.33905399  0.22900611     0.01320
C884        C  0.82656932  0.30771237  0.21790381    -0.10860
C885        C  0.79533962  0.26391317  0.21202874     0.03810
C886        C  0.75432568  0.25566327  0.19249755    -0.10280
H887        H  0.76498035  0.35651311  0.22148062     0.09400
H888        H  0.85936357  0.31610395  0.22692288     0.06930
H889        H  0.73092059  0.22318136  0.17902210     0.06780
C890        C  0.50245759  0.05374150  0.34730321     0.03820
C891        C  0.96268657  0.51589488  0.35428325    -0.12330
C892        C  0.95784968  0.47472732  0.34041760     0.01320
C893        C  0.99400315  0.46997185  0.33323417    -0.10860
C894        C  0.53391125  0.00696158  0.32436257     0.03810
C895        C  0.53741346  0.04873399  0.33015035    -0.10280
H896        H  0.93448321  0.51835126  0.36418275     0.09400
H897        H  0.99015670  0.43756815  0.32668263     0.06930
H898        H  0.56653808  0.07754124  0.31710533     0.06780
C899        C  0.55100842  0.27025104  0.19325174     0.03820
C900        C  0.56423024  0.24878883  0.23283764    -0.12330
C901        C  0.03774219  0.22479762  0.27716683     0.01320
C902        C  0.00113259  0.22770634  0.28720022    -0.10860
C903        C  0.98170932  0.23756394  0.24304096     0.03810
C904        C  0.00764216  0.26194320  0.19639213    -0.10280
H905        H  0.59327978  0.24694202  0.22621121     0.09400
H906        H  0.98184992  0.20962554  0.32295005     0.06930
H907        H  0.99388503  0.27126641  0.16207139     0.06780
C908        C  0.71320877  0.46367509  0.16525165     0.03820
C909        C  0.75340533  0.00249907  0.17502628    -0.12330
C910        C  0.75519572  0.03379254  0.21500057     0.01320
C911        C  0.71810263  0.02384668  0.24479626    -0.10860
C912        C  0.67768294  0.49377421  0.22593090     0.03810
C913        C  0.67621959  0.46045773  0.19155486    -0.10280
H914        H  0.78168292  0.00841509  0.15174141     0.09400
H915        H  0.72115036  0.04252682  0.28171024     0.06930
H916        H  0.64670878  0.43056466  0.18649033     0.06780
C917        C  0.56962064  0.00224463  0.29859613    -0.04650
C918        C  0.61204137  0.03060531  0.31410418    -0.01770
C919        C  0.64519950  0.03332187  0.28072828     0.03220
C920        C  0.63902204  0.49788310  0.24544840    -0.04650
C921        C  0.59631178  0.47060548  0.22694266    -0.01760
C922        C  0.56230870  0.47433261  0.25200712     0.03220
C923        C  0.62260708  0.05943556  0.36204768     0.37870
C924        C  0.58701471  0.44402831  0.17711051     0.37860
C925        C  0.52014656  0.45183473  0.22764120     0.36280
C926        C  0.67801792  0.07763925  0.26780726     0.36280
N927        N  0.48535573  0.43462409  0.21174425    -0.38540
N928        N  0.70244362  0.11357885  0.25685548    -0.38540
N929        N  0.57914037  0.42295414  0.13707217    -0.37980
N930        N  0.63169260  0.08245761  0.40028227    -0.37990
C931        C  0.00648657  0.09830344  0.34227522    -0.04650
C932        C  0.48128720  0.10493892  0.30221426    -0.01770
C933        C  0.49858461  0.14421139  0.27223050     0.03220
C934        C  0.03392096  0.18201890  0.29400877    -0.04650
C935        C  0.05602781  0.17772064  0.34028283    -0.01760
C936        C  0.04323643  0.13550370  0.36312808     0.03220
C937        C  0.43585217  0.07529220  0.29705744     0.37870
C938        C  0.09247065  0.21616992  0.36261958     0.37860
C939        C  0.06590399  0.13035292  0.41029404     0.36280
C940        C  0.47820175  0.14601968  0.22037814     0.36280
N941        N  0.08340032  0.12625079  0.44869618    -0.38540
N942        N  0.46168167  0.14705313  0.17917761    -0.38540
N943        N  0.12188554  0.24687501  0.38005810    -0.37980
N944        N  0.39924294  0.05311171  0.29311745    -0.37990
C945        C  0.84326340  0.37671767  0.26311720    -0.04650
C946        C  0.86438479  0.41883321  0.24010634    -0.01770
C947        C  0.90153281  0.45091519  0.26615261     0.03220
C948        C  0.91695637  0.44108277  0.31617175    -0.04650
C949        C  0.89531934  0.39812491  0.33815475    -0.01760
C950        C  0.85668440  0.36772140  0.31433500     0.03220
C951        C  0.84864801  0.42825368  0.18872573     0.37870
C952        C  0.91497271  0.38218313  0.37822160     0.37860
C953        C  0.83051446  0.32577213  0.34067851     0.36280
C954        C  0.92695142  0.49140057  0.23629956     0.36280
N955        N  0.80713838  0.29205840  0.35960988    -0.38540
N956        N  0.94671979  0.52321658  0.21087156    -0.38540
N957        N  0.92957201  0.36664526  0.40789990    -0.37980
N958        N  0.83522245  0.43520445  0.14815910    -0.37990
C959        C  0.65664119  0.02275036  0.50401242    -0.04650
C960        C  0.65484828  0.54185027  0.05503447    -0.01770
C961        C  0.61488837  0.53298158  0.07703808     0.03220
C962        C  0.57699372  0.00373811  0.54887692    -0.04650
C963        C  0.57931546  0.98700709  0.49621553    -0.01760
C964        C  0.61887699  0.99632026  0.47386957     0.03220
C965        C  0.69362399  0.56787422  0.08653037     0.37870
C966        C  0.54094314  0.95852377  0.46570193     0.37860
C967        C  0.62045319  0.97475996  0.42252868     0.36280
C968        C  0.61266441  0.55250383  0.12947087     0.36280
N969        N  0.62184749  0.95701268  0.38241107    -0.38540
N970        N  0.61084245  0.56837869  0.17105625    -0.38620
N971        N  0.51061155  0.93490791  0.44142047    -0.37980
N972        N  0.72448626  0.58850776  0.11190126    -0.37990
C973        C  0.96518899  0.04394895  0.58628332    -0.04650
C974        C  0.49363683  0.08589827  0.10578233    -0.01770
C975        C  0.49970158  0.12288350  0.07515435     0.03220
C976        C  0.97328214  0.11899006  0.52836589    -0.04650
C977        C  0.93974569  0.07651919  0.51504055    -0.01760
C978        C  0.93444063  0.03952581  0.54600372     0.03220
C979        C  0.52076550  0.09066650  0.15382471     0.37870
C980        C  0.91362515  0.06943141  0.46566366     0.37860
C981        C  0.89646974  0.99775390  0.53721088     0.36280
C982        C  0.53836303  0.16245358  0.08783527     0.36280
N983        N  0.86514351  0.96531074  0.52965739    -0.38540
N984        N  0.57221947  0.18993692  0.09839166    -0.38540
N985        N  0.89270513  0.06345963  0.42630099    -0.37980
N986        N  0.54213868  0.09459592  0.19209615    -0.37990
C987        C  0.85591442  0.31440215  0.54419830    -0.04650
C988        C  0.86837083  0.35458581  0.51564982    -0.01770
C989        C  0.90678225  0.39130710  0.52888678     0.03220
C990        C  0.92940576  0.39087248  0.57668996    -0.04650
C991        C  0.91873776  0.35066794  0.10379032    -0.01760
C992        C  0.88231667  0.31193576  0.08623682     0.03220
C993        C  0.84095041  0.35986897  0.47507242     0.37870
C994        C  0.94525019  0.34851205  0.14806298     0.37860
C995        C  0.87145552  0.27002289  0.11198665     0.36280
C996        C  0.92389319  0.42978473  0.49257192     0.36280
N997        N  0.86301381  0.23649046  0.13218931    -0.38540
N998        N  0.93853119  0.46064411  0.46410103    -0.38540
N999        N  0.96603000  0.34545147  0.18306708    -0.37980
N1000       N  0.81934077  0.36596981  0.44438286    -0.37990
Fe1001     Fe  0.86415545  0.12844177  0.81167055     1.65780
Fe1002     Fe  0.77665895  0.14423863  0.80011952     1.73250
Fe1003     Fe  0.87506852  0.23161851  0.82406750     1.54410
O1004       O  0.91715810  0.22818267  0.88330796    -0.80990
O1005       O  0.77891383  0.19127885  0.74361297    -0.79290
O1006       O  0.90277479  0.15884501  0.87951883    -0.83490
O1007       O  0.91429702  0.17368891  0.75845879    -0.78350
O1008       O  0.83579111  0.22852784  0.88841699    -0.80120
O1009       O  0.77953607  0.10892665  0.73143384    -0.82870
C1010       C  0.93413748  0.21568749  0.74951472     0.97900
C1011       C  0.92310975  0.19696603  0.90031509     1.05340
O1012       O  0.83877127  0.16809407  0.81147709    -1.11850
O1013       O  0.76357038  0.09362040  0.85532124    -0.74280
O1014       O  0.81884436  0.08201495  0.86811446    -0.77770
O1015       O  0.91801348  0.24004310  0.76111240    -0.78460
C1016       C  0.78048189  0.07298612  0.87872650     0.96800
O1017       O  0.82655495  0.08598250  0.74694600    -0.76420
O1018       O  0.76862418  0.17860232  0.86840317    -0.81610
C1019       C  0.80553181  0.23166986  0.74104562     0.99420
C1020       C  0.79589605  0.20932660  0.89923163     1.05340
O1021       O  0.84043876  0.24750326  0.76822266    -0.77250
C1022       C  0.79062103  0.07929181  0.72819210     1.03640
C1023       C  0.78351172  0.22661302  0.94944322     0.03820
C1024       C  0.81581332  0.24638267  0.99015729    -0.12330
C1025       C  0.81524343  0.27599568  0.02830196     0.01320
C1026       C  0.77915287  0.28042013  0.53357343    -0.10860
C1027       C  0.74771919  0.26461830  0.49250636     0.03810
C1028       C  0.74856741  0.23585128  0.45073447    -0.10280
H1029       H  0.84484371  0.24398901  0.98714822     0.09400
H1030       H  0.77986496  0.30359668  0.56416405     0.06930
H1031       H  0.72506610  0.22428405  0.41757941     0.06780
C1032       C  0.47898511  0.01006931  0.09221397     0.03820
C1033       C  0.95085999  0.46625129  0.10566226    -0.12330
C1034       C  0.96296119  0.43390562  0.09613569     0.01320
C1035       C  0.00542345  0.44645018  0.08329252    -0.10860
C1036       C  0.53467331  0.99077603  0.07356456     0.03810
C1037       C  0.52104657  0.02191147  0.07644936    -0.10280
H1038       H  0.91785293  0.45628687  0.11486735     0.09400
H1039       H  0.01430475  0.42153974  0.07407747     0.06930
H1040       H  0.54281017  0.05522231  0.06294628     0.06780
C1041       C  0.95614445  0.20323455  0.94336141     0.03820
C1042       C  0.94758364  0.16615529  0.97628941    -0.12330
C1043       C  0.98090582  0.15875426  0.99428051     0.01320
C1044       C  0.52244298  0.19036002  0.48034250    -0.10860
C1045       C  0.53214640  0.23352991  0.46698488     0.03810
C1046       C  0.99850541  0.23970686  0.44454426    -0.10280
H1047       H  0.91469699  0.14184204  0.98413164     0.09400
H1048       H  0.54793590  0.18272879  0.48712545     0.06930
H1049       H  0.00540042  0.27098014  0.42631807     0.06780
C1050       C  0.71525001  0.46527695  0.46391680     0.03820
C1051       C  0.69151236  0.47900121  0.49575608    -0.12330
C1052       C  0.69479117  0.01977707  0.98821657     0.01320
C1053       C  0.72577476  0.05029774  0.95263394    -0.10860
C1054       C  0.75323257  0.03966890  0.92196821     0.03810
C1055       C  0.74813045  0.99640537  0.42797070    -0.10280
H1056       H  0.66616258  0.45587629  0.52286934     0.09400
H1057       H  0.72640775  0.08142082  0.94611542     0.06930
H1058       H  0.76738560  0.98660614  0.40320405     0.06780
Fe1059     Fe  0.64073087  0.26672563  0.57107411     1.65780
Fe1060     Fe  0.62849590  0.35724218  0.55010715     1.73250
Fe1061     Fe  0.72923835  0.36718383  0.55542270     1.54410
O1062       O  0.73756348  0.33189615  0.61795137    -0.80990
O1063       O  0.66375294  0.39030011  0.47853218    -0.79290
O1064       O  0.67915779  0.26937162  0.63888793    -0.83490
O1065       O  0.68158688  0.25691346  0.51955660    -0.78350
O1066       O  0.73164608  0.41349587  0.61522738    -0.80120
O1067       O  0.58115472  0.30685676  0.50083546    -0.82870
C1068       C  0.71759185  0.28238622  0.49795035     0.97900
C1069       C  0.71830941  0.29680747  0.64655585     1.05340
O1070       O  0.66623920  0.33057363  0.55956761    -1.11850
O1071       O  0.58920441  0.32660511  0.62124446    -0.74280
O1072       O  0.59759133  0.26791366  0.62683538    -0.77770
O1073       O  0.73307391  0.32427664  0.49645971    -0.78460
C1074       C  0.58007491  0.28969205  0.64352422     0.96800
O1075       O  0.60063548  0.25534686  0.50379411    -0.76420
O1076       O  0.66843673  0.40972071  0.60059251    -0.81610
C1077       C  0.70352118  0.41865224  0.47497609     0.99420
C1078       C  0.70500127  0.42743618  0.62410334     1.05340
O1079       O  0.73210957  0.41075300  0.49379818    -0.77250
C1080       C  0.57448760  0.26842340  0.48916694     1.03640
C1081       C  0.74521025  0.29139664  0.68975871     0.03820
C1082       C  0.77328383  0.33066221  0.71639236    -0.12330
C1083       C  0.81426791  0.33905399  0.72900615     0.01320
C1084       C  0.82656927  0.30771237  0.71790387    -0.10860
C1085       C  0.79533957  0.26391317  0.71202879     0.03810
C1086       C  0.75432563  0.25566326  0.69249758    -0.10280
H1087       H  0.76498029  0.35651311  0.72148063     0.09400
H1088       H  0.85936352  0.31610395  0.72692293     0.06930
H1089       H  0.73092055  0.22318135  0.67902212     0.06780
C1090       C  0.50245761  0.05374154  0.84730315     0.03820
C1091       C  0.96268659  0.51589494  0.85428314    -0.12330
C1092       C  0.95784970  0.47472737  0.84041749     0.01320
C1093       C  0.99400317  0.46997190  0.83323409    -0.10860
C1094       C  0.53391126  0.00696161  0.82436254     0.03810
C1095       C  0.53741348  0.04873402  0.83015031    -0.10280
H1096       H  0.93448322  0.51835132  0.86418262     0.09400
H1097       H  0.99015671  0.43756820  0.82668256     0.06930
H1098       H  0.56653810  0.07754127  0.81710530     0.06780
C1099       C  0.55100840  0.27025106  0.69325171     0.03820
C1100       C  0.56423025  0.24878888  0.73283762    -0.12330
C1101       C  0.03774219  0.22479764  0.77716681     0.01320
C1102       C  0.00113259  0.22770636  0.78720021    -0.10860
C1103       C  0.98170932  0.23756396  0.74304094     0.03810
C1104       C  0.00764216  0.26194323  0.69639212    -0.10280
H1105       H  0.59327980  0.24694208  0.72621119     0.09400
H1106       H  0.98184991  0.20962554  0.82295002     0.06930
H1107       H  0.99388503  0.27126644  0.66207138     0.06780
C1108       C  0.71320878  0.46367508  0.66525168     0.03820
C1109       C  0.75340533  0.00249908  0.67502626    -0.12330
C1110       C  0.75519572  0.03379254  0.71500056     0.01320
C1111       C  0.71810263  0.02384667  0.74479626    -0.10860
C1112       C  0.67768295  0.49377420  0.72593094     0.03810
C1113       C  0.67621960  0.46045772  0.69155490    -0.10280
H1114       H  0.78168292  0.00841510  0.65174139     0.09400
H1115       H  0.72115036  0.04252681  0.78171024     0.06930
H1116       H  0.64670879  0.43056464  0.68649037     0.06780
C1117       C  0.56962064  0.00224465  0.79859612    -0.04650
C1118       C  0.61204138  0.03060531  0.81410417    -0.01770
C1119       C  0.64519951  0.03332186  0.78072828     0.03220
C1120       C  0.63902205  0.49788309  0.74544843    -0.04650
C1121       C  0.59631179  0.47060547  0.72694268    -0.01760
C1122       C  0.56230871  0.47433260  0.75200713     0.03220
C1123       C  0.62260709  0.05943557  0.86204766     0.37870
C1124       C  0.58701473  0.44402830  0.67711052     0.37860
C1125       C  0.52014657  0.45183472  0.72764120     0.36280
C1126       C  0.67801792  0.07763924  0.76780724     0.36280
N1127       N  0.48535574  0.43462408  0.71174424    -0.38540
N1128       N  0.70244362  0.11357884  0.75685545    -0.38540
N1129       N  0.57914039  0.42295414  0.63707219    -0.37980
N1130       N  0.63169261  0.08245763  0.90028224    -0.37990
C1131       C  0.00648658  0.09830346  0.84227518    -0.04650
C1132       C  0.48128723  0.10493897  0.80221419    -0.01770
C1133       C  0.49858465  0.14421144  0.77223044     0.03220
C1134       C  0.03392096  0.18201892  0.79400874    -0.04650
C1135       C  0.05602782  0.17772066  0.84028280    -0.01760
C1136       C  0.04323645  0.13550372  0.86312803     0.03220
C1137       C  0.43585221  0.07529227  0.79705737     0.37870
C1138       C  0.09247066  0.21616994  0.86261955     0.37860
C1139       C  0.06590401  0.13035294  0.91029399     0.36280
C1140       C  0.47820182  0.14601974  0.72037807     0.36280
N1141       N  0.08340034  0.12625080  0.94869613    -0.38540
N1142       N  0.46168176  0.14705321  0.67917753    -0.38540
N1143       N  0.12188555  0.24687503  0.88005808    -0.37980
N1144       N  0.39924297  0.05311180  0.79311740    -0.37990
C1145       C  0.84326336  0.37671769  0.76311721    -0.04650
C1146       C  0.86438473  0.41883322  0.74010633    -0.01770
C1147       C  0.90153278  0.45091521  0.76615255     0.03220
C1148       C  0.91695637  0.44108282  0.81617167    -0.04650
C1149       C  0.89531936  0.39812496  0.83815470    -0.01760
C1150       C  0.85668440  0.36772144  0.81433499     0.03220
C1151       C  0.84864792  0.42825367  0.68872573     0.37870
C1152       C  0.91497277  0.38218320  0.87822151     0.37860
C1153       C  0.83051449  0.32577218  0.84067854     0.36280
C1154       C  0.92695136  0.49140059  0.73629949     0.36280
N1155       N  0.80713846  0.29205844  0.85960995    -0.38540
N1156       N  0.94671972  0.52321660  0.71087147    -0.38540
N1157       N  0.92957210  0.36664534  0.90789979    -0.37980
N1158       N  0.83522234  0.43520442  0.64815911    -0.37990
C1159       C  0.65664125  0.02275041  0.00401245    -0.04650
C1160       C  0.65484828  0.54185027  0.55503448    -0.01770
C1161       C  0.61488837  0.53298157  0.57703809     0.03220
C1162       C  0.57699377  0.00373817  0.04887690    -0.04650
C1163       C  0.57931552  0.98700715  0.99621550    -0.01760
C1164       C  0.61887706  0.99632032  0.97386956     0.03220
C1165       C  0.69362399  0.56787423  0.58653038     0.37870
C1166       C  0.54094322  0.95852385  0.96570187     0.37860
C1167       C  0.62045327  0.97476002  0.92252869     0.36280
C1168       C  0.61266441  0.55250382  0.62947090     0.36280
N1169       N  0.62184758  0.95701275  0.88241107    -0.38540
N1170       N  0.61084244  0.56837867  0.67105627    -0.38620
N1171       N  0.51061163  0.93490800  0.94142039    -0.37980
N1172       N  0.72448625  0.58850777  0.61190128    -0.37990
C1173       C  0.96518898  0.04394896  0.08628330    -0.04650
C1174       C  0.49363688  0.08589831  0.60578230    -0.01770
C1175       C  0.49970166  0.12288353  0.57515428     0.03220
C1176       C  0.97328212  0.11899005  0.02836585    -0.04650
C1177       C  0.93974567  0.07651918  0.01504053    -0.01760
C1178       C  0.93444061  0.03952581  0.04600371     0.03220
C1179       C  0.52076553  0.09066653  0.65382470     0.37870
C1180       C  0.91362512  0.06943139  0.96566365     0.37860
C1181       C  0.89646972  0.99775390  0.03721089     0.36280
C1182       C  0.53836316  0.16245359  0.58783512     0.36280
N1183       N  0.86514349  0.96531073  0.02965740    -0.38540
N1184       N  0.57221963  0.18993691  0.59839143    -0.38540
N1185       N  0.89270510  0.06345961  0.92630098    -0.37980
N1186       N  0.54213870  0.09459595  0.69209615    -0.37990
C1187       C  0.85591448  0.31440216  0.04419826    -0.04650
C1188       C  0.86837088  0.35458582  0.01564978    -0.01770
C1189       C  0.90678232  0.39130711  0.02888670     0.03220
C1190       C  0.92940586  0.39087248  0.07668985    -0.04650
C1191       C  0.91873763  0.35066794  0.60379048    -0.01760
C1192       C  0.88231656  0.31193576  0.58623692     0.03220
C1193       C  0.84095045  0.35986899  0.97507242     0.37870
C1194       C  0.94524997  0.34851205  0.64806325     0.37860
C1195       C  0.87145541  0.27002288  0.61198674     0.36280
C1196       C  0.92389324  0.42978474  0.99257185     0.36280
N1197       N  0.86301368  0.23649045  0.63218939    -0.38540
N1198       N  0.93853122  0.46064412  0.96410095    -0.38540
N1199       N  0.96602970  0.34545145  0.68306745    -0.37980
N1200       N  0.81934079  0.36596982  0.94438289    -0.37990
Fe1201     Fe  0.86415619  0.62844062  0.31167474     1.65780
Fe1202     Fe  0.77666161  0.64424006  0.30011977     1.73250
Fe1203     Fe  0.87507209  0.73161874  0.32406471     1.54410
O1204       O  0.91716412  0.72818387  0.38330174    -0.80990
O1205       O  0.77891734  0.69127858  0.24360988    -0.79290
O1206       O  0.90277191  0.65884296  0.37952626    -0.83490
O1207       O  0.91430163  0.67368767  0.25846740    -0.78350
O1208       O  0.83579689  0.72852927  0.38841721    -0.80120
O1209       O  0.77953676  0.60892484  0.23143659    -0.82870
C1210       C  0.93414042  0.71568543  0.24951670     0.97900
C1211       C  0.92311162  0.69696612  0.40031544     1.05340
O1212       O  0.83877360  0.66809416  0.31147700    -1.11850
O1213       O  0.76357098  0.59362323  0.35532440    -0.74280
O1214       O  0.81884218  0.58201325  0.36811561    -0.77770
O1215       O  0.91801400  0.74004028  0.26110641    -0.78460
C1216       C  0.78048059  0.57298686  0.37872870     0.96800
O1217       O  0.82655803  0.58598321  0.24694726    -0.76420
O1218       O  0.76862913  0.67860665  0.36840147    -0.81610
C1219       C  0.80553451  0.73166981  0.24104384     0.99420
C1220       C  0.79590165  0.70932927  0.39923129     1.05340
O1221       O  0.84044086  0.74750350  0.26822223    -0.77250
C1222       C  0.79062327  0.57929116  0.22819450     1.03640
C1223       C  0.78351731  0.72661486  0.44944368     0.03820
C1224       C  0.81581809  0.74638267  0.49015899    -0.12330
C1225       C  0.81524745  0.77599396  0.52830598     0.01320
C1226       C  0.77915663  0.78041818  0.03357787    -0.10860
C1227       C  0.74772397  0.76461840  0.99250920     0.03810
C1228       C  0.74857299  0.73585297  0.95073569    -0.10280
H1229       H  0.84484859  0.74398926  0.48714929     0.09400
H1230       H  0.77986811  0.80359368  0.06416977     0.06930
H1231       H  0.72507235  0.72428710  0.91757983     0.06780
C1232       C  0.47898403  0.51007105  0.59221785     0.03820
C1233       C  0.95086286  0.96624964  0.60566081    -0.12330
C1234       C  0.96296561  0.93390502  0.59613457     0.01320
C1235       C  0.00542795  0.94645108  0.58329025    -0.10860
C1236       C  0.53467037  0.49077495  0.57356884     0.03810
C1237       C  0.52104536  0.52191164  0.57645448    -0.10280
H1238       H  0.91785566  0.95628418  0.61486662     0.09400
H1239       H  0.01431025  0.92154142  0.57407506     0.06930
H1240       H  0.54281025  0.55522233  0.56295220     0.06780
C1241       C  0.95614772  0.70323580  0.44336009     0.03820
C1242       C  0.94758809  0.66615738  0.47628887    -0.12330
C1243       C  0.98091078  0.65875552  0.49427496     0.01320
C1244       C  0.52244719  0.69036003  0.98033224    -0.10860
C1245       C  0.53215048  0.73353025  0.96697749     0.03810
C1246       C  0.99850888  0.73970780  0.94454033    -0.10280
H1247       H  0.91470171  0.64184504  0.48413495     0.09400
H1248       H  0.54794015  0.68272833  0.98711104     0.06930
H1249       H  0.00540342  0.77098128  0.92631524     0.06780
C1250       C  0.71525256  0.96527691  0.96391658     0.03820
C1251       C  0.69151512  0.97900166  0.99575571    -0.12330
C1252       C  0.69478783  0.51977633  0.48821706     0.01320
C1253       C  0.72577121  0.55029732  0.45263424    -0.10860
C1254       C  0.75322994  0.53966918  0.42196928     0.03810
C1255       C  0.74812817  0.49640580  0.92797168    -0.10280
H1256       H  0.66616523  0.95587703  0.02286907     0.09400
H1257       H  0.72640378  0.58142018  0.44611566     0.06930
H1258       H  0.76738387  0.48660700  0.90320552     0.06780
Fe1259     Fe  0.64073308  0.76672389  0.07107125     1.65780
Fe1260     Fe  0.62849714  0.85724014  0.05010585     1.73250
Fe1261     Fe  0.72924022  0.86718400  0.05542459     1.54410
O1262       O  0.73756436  0.83189667  0.11795435    -0.80990
O1263       O  0.66375489  0.89030035  0.97853232    -0.79290
O1264       O  0.67915981  0.76936927  0.13888531    -0.83490
O1265       O  0.68159040  0.75691363  0.01955401    -0.78350
O1266       O  0.73164594  0.91349620  0.11522791    -0.80120
O1267       O  0.58115762  0.80685579  0.00083189    -0.82870
C1268       C  0.71759697  0.78238698  0.99795229     0.97900
C1269       C  0.71831068  0.79680654  0.14655622     1.05340
O1270       O  0.66624100  0.83057235  0.05956664    -1.11850
O1271       O  0.58920558  0.82660096  0.12124218    -0.74280
O1272       O  0.59759122  0.76790831  0.12683264    -0.77770
O1273       O  0.73307963  0.82427753  0.99646398    -0.78460
C1274       C  0.58007561  0.78968762  0.14352165     0.96800
O1275       O  0.60063830  0.75534586  0.00379048    -0.76420
O1276       O  0.66843574  0.90971846  0.10059245    -0.81610
C1277       C  0.70352331  0.91865203  0.97497631     0.99420
C1278       C  0.70500021  0.92743541  0.12410324     1.05340
O1279       O  0.73211147  0.91075235  0.99379851    -0.77250
C1280       C  0.57449098  0.76842287  0.98916218     1.03640
C1281       C  0.74521141  0.79139526  0.18975891     0.03820
C1282       C  0.77328470  0.83066058  0.21639318    -0.12330
C1283       C  0.81426921  0.83905307  0.22900530     0.01320
C1284       C  0.82657119  0.80771207  0.21790198    -0.10860
C1285       C  0.79534184  0.76391275  0.21202692     0.03810
C1286       C  0.75432754  0.75566235  0.19249645    -0.10280
H1287       H  0.76498073  0.85651106  0.22148267     0.09400
H1288       H  0.85936563  0.81610404  0.22692062     0.06930
H1289       H  0.73092273  0.72318042  0.17902073     0.06780
C1290       C  0.50246034  0.55374206  0.34730273     0.03820
C1291       C  0.96268441  0.01589391  0.35428541    -0.12330
C1292       C  0.95784821  0.97472652  0.34042023     0.01320
C1293       C  0.99400201  0.96997190  0.33323589    -0.10860
C1294       C  0.53391331  0.50696124  0.32436373     0.03810
C1295       C  0.53741622  0.54873389  0.33015174    -0.10280
H1296       H  0.93448082  0.01834977  0.36418537     0.09400
H1297       H  0.99015615  0.93756836  0.32668532     0.06930
H1298       H  0.56654159  0.57754093  0.31710825     0.06780
C1299       C  0.55101031  0.77024841  0.19325040     0.03820
C1300       C  0.56423392  0.74878911  0.23283803    -0.12330
C1301       C  0.03774712  0.72479938  0.27716888     0.01320
C1302       C  0.00113727  0.72770789  0.28720245    -0.10860
C1303       C  0.98171248  0.73756311  0.24304257     0.03810
C1304       C  0.00764401  0.76194021  0.19639173    -0.10280
H1305       H  0.59328365  0.74694266  0.22621139     0.09400
H1306       H  0.98185538  0.70962802  0.32295331     0.06930
H1307       H  0.99388576  0.77126123  0.16207019     0.06780
C1308       C  0.71320683  0.96367521  0.16524989     0.03820
C1309       C  0.75340739  0.50249890  0.17502766    -0.12330
C1310       C  0.75519847  0.53379137  0.21500406     0.01320
C1311       C  0.71810582  0.52384471  0.24480156    -0.10860
C1312       C  0.67767996  0.99377555  0.22592557     0.03810
C1313       C  0.67621716  0.96045857  0.19155087    -0.10280
H1314       H  0.78168444  0.50841569  0.15174086     0.09400
H1315       H  0.72115392  0.54252445  0.28171617     0.06930
H1316       H  0.64670652  0.93056545  0.18648611     0.06780
C1317       C  0.56962318  0.50224400  0.29859918    -0.04650
C1318       C  0.61204361  0.53060336  0.31410982    -0.01770
C1319       C  0.64520253  0.53331990  0.28073545     0.03220
C1320       C  0.63901886  0.99788420  0.24544285    -0.04650
C1321       C  0.59630815  0.97060481  0.22693993    -0.01760
C1322       C  0.56230517  0.97433158  0.25200547     0.03220
C1323       C  0.62260837  0.55943309  0.36205371     0.37870
C1324       C  0.58701008  0.94402519  0.17711000     0.37860
C1325       C  0.52014185  0.95183026  0.22764293     0.36280
C1326       C  0.67802143  0.57763742  0.26781628     0.36280
N1327       N  0.48535038  0.93461618  0.21174812    -0.38540
N1328       N  0.70244716  0.61357737  0.25686620    -0.38540
N1329       N  0.57913502  0.92294886  0.13707358    -0.37980
N1330       N  0.63169338  0.58245485  0.40028853    -0.37990
C1331       C  0.00649035  0.59830446  0.34227512    -0.04650
C1332       C  0.48129152  0.60494091  0.30221421    -0.01770
C1333       C  0.49858974  0.64421351  0.27223083     0.03220
C1334       C  0.03392581  0.68202053  0.29401013    -0.04650
C1335       C  0.05603263  0.67772146  0.34028366    -0.01760
C1336       C  0.04324068  0.63550416  0.36312818     0.03220
C1337       C  0.43585619  0.57529569  0.29705786     0.37870
C1338       C  0.09247642  0.71617009  0.36261994     0.37860
C1339       C  0.06590797  0.63035248  0.41029380     0.36280
C1340       C  0.47820829  0.64602244  0.22037746     0.36280
N1341       N  0.08340393  0.62624964  0.44869587    -0.38540
N1342       N  0.46168984  0.64705677  0.17917583    -0.38540
N1343       N  0.12189217  0.74687453  0.38005812    -0.37980
N1344       N  0.39924675  0.55311652  0.29311823    -0.37990
C1345       C  0.84326414  0.87671651  0.26311678    -0.04650
C1346       C  0.86438565  0.91883202  0.24010611    -0.01770
C1347       C  0.90153290  0.95091407  0.26615352     0.03220
C1348       C  0.91695551  0.94108176  0.31617356    -0.04650
C1349       C  0.89531877  0.89812365  0.33815581    -0.01760
C1350       C  0.85668437  0.86772008  0.31433499     0.03220
C1351       C  0.84865002  0.92825233  0.18872435     0.37870
C1352       C  0.91497244  0.88218169  0.37822196     0.37860
C1353       C  0.83051405  0.82577065  0.34067769     0.36280
C1354       C  0.92695204  0.99139922  0.23630045     0.36280
N1355       N  0.80713712  0.79205663  0.35960749    -0.38540
N1356       N  0.94672065  0.02321495  0.21087210    -0.38540
N1357       N  0.92957243  0.86664403  0.40789950    -0.37980
N1358       N  0.83522554  0.93520306  0.14815670    -0.37990
C1359       C  0.65663778  0.52274897  0.50401442    -0.04650
C1360       C  0.65485123  0.04185199  0.05503197    -0.01770
C1361       C  0.61489111  0.03298372  0.07703425     0.03220
C1362       C  0.57699068  0.50373619  0.54888120    -0.04650
C1363       C  0.57931190  0.48700544  0.49621943    -0.01760
C1364       C  0.61887307  0.49631801  0.47387293     0.03220
C1365       C  0.69362662  0.06787622  0.08652832     0.37870
C1366       C  0.54093938  0.45852376  0.46570527     0.37860
C1367       C  0.62044828  0.47475605  0.42253306     0.36280
C1368       C  0.61266646  0.05250645  0.12946624     0.36280
N1369       N  0.62184166  0.45700725  0.38241643    -0.38540
N1370       N  0.61084371  0.06838172  0.17105085    -0.38620
N1371       N  0.51060760  0.43490949  0.44142300    -0.37980
N1372       N  0.72448870  0.08851011  0.11189939    -0.37990
C1373       C  0.96518982  0.54395216  0.58628604    -0.04650
C1374       C  0.49364011  0.58590197  0.10578171    -0.01770
C1375       C  0.49970890  0.62288632  0.07514824     0.03220
C1376       C  0.97328778  0.61899225  0.52836137    -0.04650
C1377       C  0.93974854  0.57652187  0.51504020    -0.01760
C1378       C  0.93444161  0.53952913  0.54600629     0.03220
C1379       C  0.52076797  0.59067071  0.15382509     0.37870
C1380       C  0.91362702  0.56943343  0.46566406     0.37860
C1381       C  0.89646950  0.49775785  0.53721524     0.36280
C1382       C  0.53837592  0.66245402  0.08781987     0.36280
N1383       N  0.86514256  0.46531516  0.52966282    -0.38540
N1384       N  0.57223571  0.68993561  0.09836637    -0.38540
N1385       N  0.89270620  0.56346109  0.42630210    -0.37980
N1386       N  0.54214068  0.59460044  0.19209718    -0.37990
C1387       C  0.85591853  0.81440076  0.54420162    -0.04650
C1388       C  0.86837407  0.85458402  0.51565255    -0.01770
C1389       C  0.90678585  0.89130544  0.52888751     0.03220
C1390       C  0.92941112  0.89087136  0.57668890    -0.04650
C1391       C  0.91874556  0.85066686  0.10378752    -0.01760
C1392       C  0.88232311  0.81193458  0.08623706     0.03220
C1393       C  0.84095299  0.85986643  0.47507556     0.37870
C1394       C  0.94526326  0.84851108  0.14805292     0.37860
C1395       C  0.87146344  0.77002197  0.11198650     0.36280
C1396       C  0.92389600  0.92978257  0.49257192     0.36280
N1397       N  0.86302298  0.73648987  0.13218914    -0.38540
N1398       N  0.93853383  0.96064179  0.46410079    -0.38540
N1399       N  0.96604828  0.84545142  0.18305032    -0.37980
N1400       N  0.81934304  0.86596667  0.44438587    -0.37990
Fe1401     Fe  0.86415620  0.62844061  0.81167475     1.65780
Fe1402     Fe  0.77666162  0.64424005  0.80011979     1.73250
Fe1403     Fe  0.87507210  0.73161873  0.82406472     1.54410
O1404       O  0.91716413  0.72818386  0.88330174    -0.80990
O1405       O  0.77891734  0.69127857  0.74360989    -0.79290
O1406       O  0.90277190  0.65884294  0.87952629    -0.83490
O1407       O  0.91430166  0.67368766  0.75846744    -0.78350
O1408       O  0.83579690  0.72852926  0.88841723    -0.80120
O1409       O  0.77953676  0.60892483  0.73143662    -0.82870
C1410       C  0.93414043  0.71568542  0.74951672     0.97900
C1411       C  0.92311162  0.69696610  0.90031546     1.05340
O1412       O  0.83877361  0.66809415  0.81147701    -1.11850
O1413       O  0.76357098  0.59362323  0.85532443    -0.74280
O1414       O  0.81884218  0.58201323  0.86811561    -0.77770
O1415       O  0.91801399  0.74004026  0.76110641    -0.78460
C1416       C  0.78048059  0.57298685  0.87872872     0.96800
O1417       O  0.82655805  0.58598321  0.74694727    -0.76420
O1418       O  0.76862914  0.67860665  0.86840148    -0.81610
C1419       C  0.80553452  0.73166980  0.74104386     0.99420
C1420       C  0.79590166  0.70932927  0.89923130     1.05340
O1421       O  0.84044087  0.74750349  0.76822225    -0.77250
C1422       C  0.79062328  0.57929115  0.72819452     1.03640
C1423       C  0.78351732  0.72661486  0.94944369     0.03820
C1424       C  0.81581810  0.74638267  0.99015901    -0.12330
C1425       C  0.81524746  0.77599396  0.02830600     0.01320
C1426       C  0.77915663  0.78041818  0.53357785    -0.10860
C1427       C  0.74772396  0.76461840  0.49250918     0.03810
C1428       C  0.74857298  0.73585296  0.45073568    -0.10280
H1429       H  0.84484860  0.74398926  0.98714931     0.09400
H1430       H  0.77986811  0.80359369  0.56416975     0.06930
H1431       H  0.72507234  0.72428709  0.41757982     0.06780
C1432       C  0.47898404  0.51007106  0.09221785     0.03820
C1433       C  0.95086286  0.96624965  0.10566080    -0.12330
C1434       C  0.96296561  0.93390503  0.09613457     0.01320
C1435       C  0.00542795  0.94645109  0.08329024    -0.10860
C1436       C  0.53467037  0.49077496  0.07356883     0.03810
C1437       C  0.52104536  0.52191165  0.07645447    -0.10280
H1438       H  0.91785566  0.95628419  0.11486661     0.09400
H1439       H  0.01431026  0.92154144  0.07407505     0.06930
H1440       H  0.54281026  0.55522234  0.06295219     0.06780
C1441       C  0.95614771  0.70323578  0.94336013     0.03820
C1442       C  0.94758805  0.66615736  0.97628892    -0.12330
C1443       C  0.98091074  0.65875549  0.99427507     0.01320
C1444       C  0.52244718  0.69036002  0.48033226    -0.10860
C1445       C  0.53215047  0.73353024  0.46697750     0.03810
C1446       C  0.99850889  0.73970783  0.44454028    -0.10280
H1447       H  0.91470168  0.64184501  0.98413497     0.09400
H1448       H  0.54794014  0.68272832  0.48711106     0.06930
H1449       H  0.00540341  0.77098131  0.42631522     0.06780
C1450       C  0.71525254  0.96527689  0.46391656     0.03820
C1451       C  0.69151507  0.97900163  0.49575566    -0.12330
C1452       C  0.69478783  0.51977630  0.98821705     0.01320
C1453       C  0.72577121  0.55029730  0.95263425    -0.10860
C1454       C  0.75322994  0.53966916  0.92196929     0.03810
C1455       C  0.74812817  0.49640582  0.42797167    -0.10280
H1456       H  0.66616518  0.95587698  0.52286901     0.09400
H1457       H  0.72640378  0.58142017  0.94611567     0.06930
H1458       H  0.76738386  0.48660701  0.40320551     0.06780
Fe1459     Fe  0.64073308  0.76672389  0.57107126     1.65780
Fe1460     Fe  0.62849714  0.85724014  0.55010584     1.73250
Fe1461     Fe  0.72924022  0.86718400  0.55542458     1.54410
O1462       O  0.73756436  0.83189666  0.61795433    -0.80990
O1463       O  0.66375489  0.89030033  0.47853229    -0.79290
O1464       O  0.67915981  0.76936926  0.63888530    -0.83490
O1465       O  0.68159039  0.75691363  0.51955401    -0.78350
O1466       O  0.73164594  0.91349619  0.61522791    -0.80120
O1467       O  0.58115762  0.80685578  0.50083189    -0.82870
C1468       C  0.71759696  0.78238698  0.49795228     0.97900
C1469       C  0.71831068  0.79680653  0.64655621     1.05340
O1470       O  0.66624100  0.83057234  0.55956663    -1.11850
O1471       O  0.58920560  0.82660097  0.62124217    -0.74280
O1472       O  0.59759123  0.76790832  0.62683265    -0.77770
O1473       O  0.73307962  0.82427752  0.49646396    -0.78460
C1474       C  0.58007563  0.78968764  0.64352166     0.96800
O1475       O  0.60063829  0.75534585  0.50379049    -0.76420
O1476       O  0.66843576  0.90971847  0.60059242    -0.81610
C1477       C  0.70352330  0.91865202  0.47497629     0.99420
C1478       C  0.70500022  0.92743541  0.62410322     1.05340
O1479       O  0.73211148  0.91075236  0.49379851    -0.77250
C1480       C  0.57449097  0.76842286  0.48916219     1.03640
C1481       C  0.74521142  0.79139525  0.68975890     0.03820
C1482       C  0.77328471  0.83066057  0.71639317    -0.12330
C1483       C  0.81426921  0.83905306  0.72900530     0.01320
C1484       C  0.82657120  0.80771206  0.71790200    -0.10860
C1485       C  0.79534185  0.76391274  0.71202694     0.03810
C1486       C  0.75432755  0.75566234  0.69249645    -0.10280
H1487       H  0.76498074  0.85651105  0.72148265     0.09400
H1488       H  0.85936564  0.81610403  0.72692065     0.06930
H1489       H  0.73092274  0.72318042  0.67902073     0.06780
C1490       C  0.50246034  0.55374207  0.84730269     0.03820
C1491       C  0.96268441  0.01589394  0.85428538    -0.12330
C1492       C  0.95784821  0.97472653  0.84042020     0.01320
C1493       C  0.99400200  0.96997191  0.83323588    -0.10860
C1494       C  0.53391331  0.50696124  0.82436372     0.03810
C1495       C  0.53741623  0.54873390  0.83015171    -0.10280
H1496       H  0.93448083  0.01834979  0.86418534     0.09400
H1497       H  0.99015614  0.93756837  0.82668531     0.06930
H1498       H  0.56654160  0.57754093  0.81710824     0.06780
C1499       C  0.55101033  0.77024845  0.69325042     0.03820
C1500       C  0.56423395  0.74878915  0.73283804    -0.12330
C1501       C  0.03774717  0.72479946  0.77716891     0.01320
C1502       C  0.00113731  0.72770795  0.78720247    -0.10860
C1503       C  0.98171249  0.73756312  0.74304258     0.03810
C1504       C  0.00764400  0.76194019  0.69639171    -0.10280
H1505       H  0.59328368  0.74694270  0.72621140     0.09400
H1506       H  0.98185543  0.70962808  0.82295335     0.06930
H1507       H  0.99388572  0.77126117  0.66207016     0.06780
C1508       C  0.71320684  0.96367521  0.66524987     0.03820
C1509       C  0.75340739  0.50249889  0.67502768    -0.12330
C1510       C  0.75519848  0.53379135  0.71500409     0.01320
C1511       C  0.71810583  0.52384470  0.74480159    -0.10860
C1512       C  0.67767997  0.99377554  0.72592557     0.03810
C1513       C  0.67621716  0.96045857  0.69155086    -0.10280
H1514       H  0.78168445  0.50841569  0.65174088     0.09400
H1515       H  0.72115393  0.54252444  0.78171621     0.06930
H1516       H  0.64670653  0.93056545  0.68648610     0.06780
C1517       C  0.56962317  0.50224400  0.79859918    -0.04650
C1518       C  0.61204361  0.53060335  0.81410984    -0.01770
C1519       C  0.64520253  0.53331988  0.78073549     0.03220
C1520       C  0.63901886  0.99788419  0.74544286    -0.04650
C1521       C  0.59630815  0.97060480  0.72693994    -0.01760
C1522       C  0.56230518  0.97433159  0.75200546     0.03220
C1523       C  0.62260836  0.55943308  0.86205373     0.37870
C1524       C  0.58701008  0.94402517  0.67711002     0.37860
C1525       C  0.52014187  0.95183029  0.72764291     0.36280
C1526       C  0.67802143  0.57763741  0.76781632     0.36280
N1527       N  0.48535039  0.93461624  0.71174810    -0.38540
N1528       N  0.70244717  0.61357736  0.75686626    -0.38540
N1529       N  0.57913501  0.92294883  0.63707360    -0.37980
N1530       N  0.63169336  0.58245484  0.90028855    -0.37990
C1531       C  0.00649039  0.59830452  0.84227506    -0.04650
C1532       C  0.48129154  0.60494094  0.80221418    -0.01770
C1533       C  0.49858977  0.64421354  0.77223081     0.03220
C1534       C  0.03392586  0.68202060  0.79401013    -0.04650
C1535       C  0.05603266  0.67772152  0.84028368    -0.01760
C1536       C  0.04324070  0.63550421  0.86312817     0.03220
C1537       C  0.43585621  0.57529573  0.79705782     0.37870
C1538       C  0.09247643  0.71617014  0.86262001     0.37860
C1539       C  0.06590797  0.63035250  0.91029380     0.36280
C1540       C  0.47820832  0.64602249  0.72037745     0.36280
N1541       N  0.08340390  0.62624965  0.94869589    -0.38540
N1542       N  0.46168987  0.64705683  0.67917582    -0.38540
N1543       N  0.12189217  0.74687457  0.88005822    -0.37980
N1544       N  0.39924676  0.55311657  0.79311820    -0.37990
C1545       C  0.84326414  0.87671650  0.76311678    -0.04650
C1546       C  0.86438564  0.91883201  0.74010610    -0.01770
C1547       C  0.90153288  0.95091407  0.76615351     0.03220
C1548       C  0.91695550  0.94108178  0.81617355    -0.04650
C1549       C  0.89531878  0.89812366  0.83815581    -0.01760
C1550       C  0.85668438  0.86772009  0.81433499     0.03220
C1551       C  0.84865001  0.92825232  0.68872434     0.37870
C1552       C  0.91497245  0.88218171  0.87822196     0.37860
C1553       C  0.83051407  0.82577065  0.84067769     0.36280
C1554       C  0.92695201  0.99139922  0.73630044     0.36280
N1555       N  0.80713714  0.79205663  0.85960750    -0.38540
N1556       N  0.94672061  0.02321495  0.71087209    -0.38540
N1557       N  0.92957244  0.86664405  0.90789950    -0.37980
N1558       N  0.83522553  0.93520303  0.64815668    -0.37990
C1559       C  0.65663778  0.52274896  0.00401442    -0.04650
C1560       C  0.65485118  0.04185195  0.55503195    -0.01770
C1561       C  0.61489107  0.03298367  0.57703425     0.03220
C1562       C  0.57699068  0.50373620  0.04888118    -0.04650
C1563       C  0.57931189  0.48700544  0.99621941    -0.01760
C1564       C  0.61887307  0.49631800  0.97387292     0.03220
C1565       C  0.69362658  0.06787619  0.58652828     0.37870
C1566       C  0.54093937  0.45852377  0.96570525     0.37860
C1567       C  0.62044827  0.47475603  0.92253306     0.36280
C1568       C  0.61266643  0.05250642  0.62946624     0.36280
N1569       N  0.62184164  0.45700722  0.88241643    -0.38540
N1570       N  0.61084369  0.06838170  0.67105085    -0.38620
N1571       N  0.51060760  0.43490953  0.94142298    -0.37980
N1572       N  0.72448867  0.08851009  0.61189933    -0.37990
C1573       C  0.96518980  0.54395211  0.08628605    -0.04650
C1574       C  0.49364010  0.58590195  0.60578171    -0.01770
C1575       C  0.49970888  0.62288631  0.57514824     0.03220
C1576       C  0.97328771  0.61899221  0.02836147    -0.04650
C1577       C  0.93974851  0.57652183  0.01504024    -0.01760
C1578       C  0.93444160  0.53952908  0.04600629     0.03220
C1579       C  0.52076796  0.59067070  0.65382509     0.37870
C1580       C  0.91362702  0.56943340  0.96566407     0.37860
C1581       C  0.89646950  0.49775780  0.03721521     0.36280
C1582       C  0.53837589  0.66245401  0.58781990     0.36280
N1583       N  0.86514257  0.46531511  0.02966276    -0.38540
N1584       N  0.57223567  0.68993561  0.59836642    -0.38540
N1585       N  0.89270622  0.56346108  0.92630208    -0.37980
N1586       N  0.54214066  0.59460043  0.69209718    -0.37990
C1587       C  0.85591854  0.81440076  0.04420163    -0.04650
C1588       C  0.86837407  0.85458402  0.01565256    -0.01770
C1589       C  0.90678585  0.89130545  0.02888751     0.03220
C1590       C  0.92941113  0.89087137  0.07668890    -0.04650
C1591       C  0.91874554  0.85066685  0.60378752    -0.01760
C1592       C  0.88232309  0.81193458  0.58623705     0.03220
C1593       C  0.84095298  0.85986642  0.97507556     0.37870
C1594       C  0.94526323  0.84851106  0.64805293     0.37860
C1595       C  0.87146341  0.77002196  0.61198649     0.36280
C1596       C  0.92389599  0.92978257  0.99257192     0.36280
N1597       N  0.86302295  0.73648985  0.63218912    -0.38540
N1598       N  0.93853381  0.96064179  0.96410078    -0.38540
N1599       N  0.96604824  0.84545140  0.68305035    -0.37980
N1600       N  0.81934304  0.86596666  0.94438588    -0.37990
loop_ 
_geom_bond_atom_site_label_1 
_geom_bond_atom_site_label_2 
_geom_bond_distance 
_geom_bond_site_symmetry_2 
_ccdc_geom_bond_type 
Fe1          O17   2.118       .  S
Fe1           O7   2.132       .  S
Fe1          O14   2.118       .  S
Fe1           O6   2.064       .  S
Fe1          O12   1.988       .  S
Fe2           O5   2.087       .  S
Fe2           O9   2.088       .  S
Fe2          O13   2.058       .  S
Fe2          O18   2.129       .  S
Fe2          O12   1.979       .  S
Fe3          O21   2.068       .  S
Fe3           O8   2.049       .  S
Fe3          O15   2.065       .  S
Fe3           O4   2.112       .  S
Fe3          O12   1.973       .  S
O4           C11   1.270       .  A
O5           C19   1.261       .  A
O6           C11   1.269       .  A
O7           C10   1.295       .  A
O8           C20   1.274       .  A
O9           C22   1.276       .  A
C10          O15   1.268       .  A
C10         C103   1.498       .  S
C11          C41   1.502       .  S
O13          C16   1.270       .  A
O14          C16   1.276       .  A
C16          C54   1.500       .  S
O17          C22   1.273       .  A
O18          C20   1.279       .  A
C19          O21   1.274       .  A
C19          C85   1.504       .  S
C20          C23   1.505       .  S
C22         C110   1.508       .  S
C23          C24   1.412       .  A
C23         C228   1.435       .  A
C24          C25   1.388       .  A
C24          H29   1.084       .  S
C25         C187   1.473       .  S
C25         C226   1.379       .  A
C26          C27   1.392   1_554  A
C26         C225   1.379       .  A
C26          H30   1.083       .  S
C27          C68   1.487       .  S
C27          C28   1.429       .  A
C28         C223   1.435       .  A
C28          H31   1.083       .  S
C32         C973   1.490       .  S
C32          C37   1.405   1_655  A
C32        C1233   1.396   1_545  A
C33          C34   1.409       .  A
C33        C1232   1.396       .  A
C33          H38   1.079       .  S
C34         C190   1.472       .  S
C34          C35   1.396       .  A
C35        C1236   1.400       .  A
C35          H39   1.083       .  S
C36         C162   1.476   1_565  S
C36          C37   1.390   1_565  A
C36        C1235   1.400       .  A
C37          H40   1.084       .  S
C41          C42   1.408       .  A
C41         C246   1.430       .  A
C42          C43   1.404       .  A
C42          H47   1.081       .  S
C43         C176   1.508       .  S
C43        C1044   1.393       .  A
C44          C45   1.404       .  A
C44        C1043   1.393   1_455  A
C44          H48   1.079       .  S
C45          C80   1.508       .  S
C45         C846   1.426   1_455  A
C46         C241   1.430       .  A
C46         C845   1.426       .  A
C46          H49   1.082       .  S
C50          C77   1.489       .  S
C50          C51   1.388       .  A
C50         C455   1.431       .  A
C51         C652   1.378       .  A
C51          H56   1.084   1_556  S
C52         C159   1.468       .  S
C52          C53   1.388       .  A
C52         C651   1.378   1_545  A
C53          C54   1.412       .  A
C53          H57   1.084       .  S
C54         C255   1.434   1_545  A
C55         C450   1.431       .  A
C55         C254   1.434   1_565  A
C55          H58   1.082       .  S
Fe59         O75   2.063       .  S
Fe59         O65   2.063       .  S
Fe59         O72   2.054       .  S
Fe59         O64   2.098       .  S
Fe59         O70   1.969       .  S
Fe60         O63   2.098   1_554  S
Fe60         O67   2.116       .  S
Fe60         O71   2.126       .  S
Fe60         O76   2.081       .  S
Fe60         O70   1.989       .  S
Fe61         O79   2.074   1_554  S
Fe61         O66   2.131       .  S
Fe61         O73   2.112   1_554  S
Fe61         O62   2.040       .  S
Fe61         O70   1.982       .  S
O62          C69   1.268       .  A
O63          C77   1.282       .  A
O64          C69   1.270       .  A
O65          C68   1.264   1_554  A
O66          C78   1.281       .  A
O67          C80   1.274   1_554  A
C68          O73   1.285       .  A
C69          C81   1.484       .  S
O71          C74   1.276       .  A
O72          C74   1.262       .  A
C74          C99   1.502       .  S
O75          C80   1.272   1_554  A
O76          C78   1.277       .  A
C77          O79   1.264       .  A
C78         C108   1.517       .  S
C81          C82   1.401       .  A
C81          C86   1.433       .  A
C82          C83   1.383       .  A
C82          H87   1.084       .  S
C83         C145   1.468       .  S
C83          C84   1.388       .  A
C84          C85   1.395       .  A
C84          H88   1.085       .  S
C85          C86   1.431       .  A
C86          H89   1.082       .  S
C90         C931   1.492       .  S
C90          C95   1.406       .  A
C90        C1291   1.403   1_455  A
C91          C92   1.400       .  A
C91        C1290   1.403       .  A
C91          H96   1.080       .  S
C92         C148   1.482       .  S
C92          C93   1.393       .  A
C93        C1294   1.398       .  A
C93          H97   1.081       .  S
C94         C117   1.498       .  S
C94          C95   1.406       .  A
C94        C1293   1.398   1_445  A
C95          H98   1.082       .  S
C99         C100   1.418       .  A
C99         C904   1.436       .  A
C100        C901   1.392       .  A
C100        H105   1.084       .  S
C101        C134   1.482       .  S
C101        C102   1.383       .  A
C101        C900   1.392       .  A
C102        C103   1.393       .  A
C102        H106   1.083       .  S
C103        C104   1.430       .  A
C104        C899   1.436       .  A
C104        H107   1.082       .  S
C108        C113   1.419       .  A
C108        C509   1.439       .  A
C109        C110   1.431       .  A
C109        C508   1.439   1_545  A
C109        H114   1.082       .  S
C110        C111   1.392       .  A
C111        C512   1.389   1_545  A
C111        H115   1.073       .  S
C112        C120   1.531       .  S
C112        C113   1.406       .  A
C112        C511   1.389       .  A
C113        H116   1.072       .  S
C117        C118   1.403       .  A
C117        C522   1.421   1_545  A
C118        C119   1.393       .  A
C118        C123   1.452       .  S
C119        C520   1.425   1_545  A
C119        C126   1.446       .  S
C120        C121   1.425       .  A
C120        C519   1.425       .  A
C121        C122   1.418       .  A
C121        C124   1.449       .  S
C122        C517   1.421       .  A
C122        C125   1.445       .  S
C123        N130   1.157       .  T
C124        N129   1.158       .  T
C125        N127   1.154   1_455  T
C126        N128   1.155       .  T
C131        C890   1.492       .  S
C131        C136   1.418       .  A
C131        C932   1.408       .  A
C132        C133   1.390       .  A
C132        C931   1.408   1_655  A
C132        C137   1.448       .  S
C133        C934   1.413   1_655  A
C133        C140   1.454       .  S
C134        C135   1.408       .  A
C134        C933   1.413       .  A
C135        C136   1.417       .  A
C135        C138   1.447       .  S
C136        C139   1.449       .  S
C137        N144   1.158       .  T
C138        N143   1.157       .  T
C139        N141   1.157       .  T
C140        N142   1.157       .  T
C145        C146   1.393       .  A
C145        C150   1.402       .  A
C146        C147   1.404       .  A
C146        C151   1.451       .  S
C147        C148   1.424       .  A
C147        C154   1.438       .  S
C148        C149   1.407       .  A
C149        C150   1.394       .  A
C149        C152   1.446       .  S
C150        C153   1.438       .  S
C151        N158   1.157       .  T
C152        N157   1.157       .  T
C153        N155   1.150       .  T
C154        N156   1.152       .  T
C159        C164   1.412   1_545  A
C159        C760   1.408       .  A
C160        C161   1.409       .  A
C160        C759   1.408       .  A
C160        C165   1.450       .  S
C161        C762   1.413       .  A
C161        C168   1.449       .  S
C162        C163   1.408   1_545  A
C162        C761   1.413       .  A
C163        C164   1.395       .  A
C163        C166   1.445       .  S
C164        C167   1.457       .  S
C165        N172   1.157       .  T
C166        N171   1.154       .  T
C167        N169   1.157       .  T
C168        N170   1.157       .  T
C173        C832   1.490       .  S
C173        C178   1.414       .  A
C173       C1174   1.398       .  A
C174        C175   1.400       .  A
C174       C1173   1.398       .  A
C174        C179   1.461   1_655  S
C175       C1176   1.428       .  A
C175        C182   1.436   1_655  S
C176        C177   1.419       .  A
C176       C1175   1.428       .  A
C177        C178   1.412       .  A
C177        C180   1.451       .  S
C178        C181   1.447   1_545  S
C179        N186   1.157       .  T
C180        N185   1.157       .  T
C181        N183   1.158       .  T
C182        N184   1.151       .  T
C187        C188   1.416       .  A
C187        C392   1.409       .  A
C188        C189   1.387       .  A
C188        C193   1.452       .  S
C189        C190   1.404       .  A
C189        C196   1.453       .  S
C190        C391   1.413       .  A
C191        C192   1.413       .  A
C191        C390   1.413       .  A
C191        C194   1.447       .  S
C192        C387   1.409       .  A
C192        C195   1.449       .  S
C193        N200   1.157       .  T
C194        N199   1.157       .  T
C195        N197   1.157       .  T
C196        N198   1.156       .  T
Fe201       O217   2.118       .  S
Fe201       O207   2.132       .  S
Fe201       O214   2.118       .  S
Fe201       O206   2.064       .  S
Fe201       O212   1.988       .  S
Fe202       O205   2.087       .  S
Fe202       O209   2.088       .  S
Fe202       O213   2.058       .  S
Fe202       O218   2.129       .  S
Fe202       O212   1.979       .  S
Fe203       O221   2.068       .  S
Fe203       O208   2.049       .  S
Fe203       O215   2.065       .  S
Fe203       O204   2.112       .  S
Fe203       O212   1.973       .  S
O204        C211   1.270       .  A
O205        C219   1.261       .  A
O206        C211   1.269       .  A
O207        C210   1.295       .  A
O208        C220   1.274       .  A
O209        C222   1.276       .  A
C210        O215   1.268       .  A
C210        C303   1.498       .  S
C211        C241   1.502       .  S
O213        C216   1.270       .  A
O214        C216   1.276       .  A
C216        C254   1.500       .  S
O217        C222   1.273       .  A
O218        C220   1.279       .  A
C219        O221   1.274       .  A
C219        C285   1.504       .  S
C220        C223   1.505       .  S
C222        C310   1.508       .  S
C223        C224   1.412       .  A
C224        C225   1.388   1_556  A
C224        H229   1.084       .  S
C225        C387   1.473       .  S
C226        C227   1.392       .  A
C226        H230   1.083       .  S
C227        C268   1.487       .  S
C227        C228   1.429       .  A
C228        H231   1.083       .  S
C232       C1173   1.490       .  S
C232       C1433   1.396   1_545  A
C232        C237   1.405   1_655  A
C233       C1432   1.396       .  A
C233        C234   1.409       .  A
C233        H238   1.079       .  S
C234        C390   1.472       .  S
C234        C235   1.396       .  A
C235       C1436   1.400       .  A
C235        H239   1.083       .  S
C236        C362   1.476   1_565  S
C236       C1435   1.400       .  A
C236        C237   1.390   1_565  A
C237        H240   1.084       .  S
C241        C242   1.408       .  A
C242        C243   1.404       .  A
C242        H247   1.081       .  S
C243        C376   1.508   1_556  S
C243        C844   1.393       .  A
C244        C843   1.393   1_455  A
C244        C245   1.404       .  A
C244        H248   1.079       .  S
C245        C280   1.508       .  S
C245       C1046   1.426   1_455  A
C246       C1045   1.426       .  A
C246        H249   1.082       .  S
C250        C277   1.489       .  S
C250        C251   1.388       .  A
C250        C655   1.431       .  A
C251        C452   1.378       .  A
C251        H256   1.084       .  S
C252        C359   1.468   1_556  S
C252        C451   1.378   1_545  A
C252        C253   1.388       .  A
C253        C254   1.412       .  A
C253        H257   1.084       .  S
C255        C650   1.431       .  A
C255        H258   1.082       .  S
Fe259       O275   2.063       .  S
Fe259       O265   2.063       .  S
Fe259       O272   2.054       .  S
Fe259       O264   2.098       .  S
Fe259       O270   1.969       .  S
Fe260       O263   2.098       .  S
Fe260       O267   2.116       .  S
Fe260       O271   2.126       .  S
Fe260       O276   2.081       .  S
Fe260       O270   1.989       .  S
Fe261       O279   2.074       .  S
Fe261       O266   2.131       .  S
Fe261       O273   2.112       .  S
Fe261       O262   2.040       .  S
Fe261       O270   1.982       .  S
O262        C269   1.268       .  A
O263        C277   1.282       .  A
O264        C269   1.270       .  A
O265        C268   1.264       .  A
O266        C278   1.281       .  A
O267        C280   1.274       .  A
C268        O273   1.285       .  A
C269        C281   1.484       .  S
O271        C274   1.276       .  A
O272        C274   1.262       .  A
C274        C299   1.502       .  S
O275        C280   1.272       .  A
O276        C278   1.277       .  A
C277        O279   1.264       .  A
C278        C308   1.517       .  S
C281        C282   1.401       .  A
C281        C286   1.433       .  A
C282        C283   1.383       .  A
C282        H287   1.084       .  S
C283        C345   1.468       .  S
C283        C284   1.388       .  A
C284        C285   1.395       .  A
C284        H288   1.085       .  S
C285        C286   1.431       .  A
C286        H289   1.082       .  S
C290       C1131   1.492       .  S
C290       C1491   1.403   1_455  A
C290        C295   1.406       .  A
C291       C1490   1.403       .  A
C291        C292   1.400       .  A
C291        H296   1.080       .  S
C292        C348   1.482       .  S
C292        C293   1.393       .  A
C293       C1494   1.398       .  A
C293        H297   1.081       .  S
C294        C317   1.498       .  S
C294       C1493   1.398   1_445  A
C294        C295   1.406       .  A
C295        H298   1.082       .  S
C299        C300   1.418       .  A
C299       C1104   1.436       .  A
C300       C1101   1.392       .  A
C300        H305   1.084       .  S
C301        C334   1.482       .  S
C301       C1100   1.392       .  A
C301        C302   1.383       .  A
C302        C303   1.393       .  A
C302        H306   1.083       .  S
C303        C304   1.430       .  A
C304       C1099   1.436       .  A
C304        H307   1.082       .  S
C308        C709   1.439       .  A
C308        C313   1.419       .  A
C309        C708   1.439   1_545  A
C309        C310   1.431       .  A
C309        H314   1.082       .  S
C310        C311   1.392       .  A
C311        C712   1.389   1_545  A
C311        H315   1.073       .  S
C312        C320   1.531       .  S
C312        C711   1.389       .  A
C312        C313   1.406       .  A
C313        H316   1.072       .  S
C317        C318   1.403       .  A
C317        C722   1.421   1_545  A
C318        C319   1.393       .  A
C318        C323   1.452       .  S
C319        C720   1.425   1_545  A
C319        C326   1.446       .  S
C320        C719   1.425       .  A
C320        C321   1.425       .  A
C321        C322   1.418       .  A
C321        C324   1.449       .  S
C322        C717   1.421       .  A
C322        C325   1.445       .  S
C323        N330   1.157       .  T
C324        N329   1.158       .  T
C325        N327   1.154   1_455  T
C326        N328   1.155       .  T
C331       C1090   1.492       .  S
C331       C1132   1.408       .  A
C331        C336   1.418       .  A
C332       C1131   1.408   1_655  A
C332        C333   1.390       .  A
C332        C337   1.448       .  S
C333       C1134   1.413   1_655  A
C333        C340   1.454       .  S
C334       C1133   1.413       .  A
C334        C335   1.408       .  A
C335        C336   1.417       .  A
C335        C338   1.447       .  S
C336        C339   1.449       .  S
C337        N344   1.158       .  T
C338        N343   1.157       .  T
C339        N341   1.157       .  T
C340        N342   1.157       .  T
C345        C346   1.393       .  A
C345        C350   1.402       .  A
C346        C347   1.404       .  A
C346        C351   1.451       .  S
C347        C348   1.424       .  A
C347        C354   1.438       .  S
C348        C349   1.407       .  A
C349        C350   1.394       .  A
C349        C352   1.446       .  S
C350        C353   1.438       .  S
C351        N358   1.157       .  T
C352        N357   1.157       .  T
C353        N355   1.150       .  T
C354        N356   1.152       .  T
C359        C560   1.408       .  A
C359        C364   1.412   1_544  A
C360        C559   1.408       .  A
C360        C361   1.409       .  A
C360        C365   1.450       .  S
C361        C562   1.413       .  A
C361        C368   1.449       .  S
C362        C561   1.413       .  A
C362        C363   1.408   1_544  A
C363        C364   1.395       .  A
C363        C366   1.445       .  S
C364        C367   1.457       .  S
C365        N372   1.157       .  T
C366        N371   1.154       .  T
C367        N369   1.157       .  T
C368        N370   1.157       .  T
C373       C1032   1.490       .  S
C373        C974   1.398       .  A
C373        C378   1.414       .  A
C374        C973   1.398       .  A
C374        C375   1.400       .  A
C374        C379   1.461   1_655  S
C375        C976   1.428       .  A
C375        C382   1.436   1_655  S
C376        C975   1.428       .  A
C376        C377   1.419       .  A
C377        C378   1.412       .  A
C377        C380   1.451   1_554  S
C378        C381   1.447   1_545  S
C379        N386   1.157       .  T
C380        N385   1.157       .  T
C381        N383   1.158       .  T
C382        N384   1.151       .  T
C387        C388   1.416       .  A
C388        C389   1.387       .  A
C388        C393   1.452   1_554  S
C389        C390   1.404       .  A
C389        C396   1.453   1_554  S
C391        C392   1.413       .  A
C391        C394   1.447       .  S
C392        C395   1.449       .  S
C393        N400   1.157       .  T
C394        N399   1.157       .  T
C395        N397   1.157       .  T
C396        N398   1.156       .  T
Fe401       O417   2.118       .  S
Fe401       O407   2.132       .  S
Fe401       O414   2.118       .  S
Fe401       O406   2.064       .  S
Fe401       O412   1.988       .  S
Fe402       O405   2.087       .  S
Fe402       O409   2.088       .  S
Fe402       O413   2.058       .  S
Fe402       O418   2.129       .  S
Fe402       O412   1.979       .  S
Fe403       O421   2.068       .  S
Fe403       O408   2.049       .  S
Fe403       O415   2.065       .  S
Fe403       O404   2.112       .  S
Fe403       O412   1.973       .  S
O404        C411   1.270       .  A
O405        C419   1.261       .  A
O406        C411   1.269       .  A
O407        C410   1.295       .  A
O408        C420   1.274       .  A
O409        C422   1.276       .  A
C410        O415   1.268       .  A
C410        C503   1.498       .  S
C411        C441   1.502       .  S
O413        C416   1.270       .  A
O414        C416   1.276       .  A
C416        C454   1.500       .  S
O417        C422   1.273       .  A
O418        C420   1.279       .  A
C419        O421   1.274       .  A
C419        C485   1.504       .  S
C420        C423   1.505       .  S
C422        C510   1.508       .  S
C423        C424   1.412       .  A
C423        C628   1.435       .  A
C424        C425   1.388       .  A
C424        H429   1.084       .  S
C425        C587   1.473       .  S
C425        C626   1.379       .  A
C426        C625   1.379       .  A
C426        C427   1.392   1_554  A
C426        H430   1.083       .  S
C427        C468   1.487       .  S
C427        C428   1.429       .  A
C428        C623   1.435       .  A
C428        H431   1.083       .  S
C432       C1373   1.490       .  S
C432        C833   1.396       .  A
C432        C437   1.405   1_655  A
C433        C832   1.396   1_565  A
C433        C434   1.409       .  A
C433        H438   1.079       .  S
C434        C590   1.472       .  S
C434        C435   1.396       .  A
C435        C836   1.400       .  A
C435        H439   1.083       .  S
C436        C562   1.476       .  S
C436        C835   1.400       .  A
C436        C437   1.390       .  A
C437        H440   1.084       .  S
C441        C442   1.408       .  A
C441        C646   1.430       .  A
C442        C443   1.404       .  A
C442        H447   1.081       .  S
C443        C576   1.508       .  S
C443       C1444   1.393       .  A
C444       C1443   1.393   1_455  A
C444        C445   1.404       .  A
C444        H448   1.079       .  S
C445        C480   1.508       .  S
C445       C1246   1.426   1_455  A
C446        C641   1.430       .  A
C446       C1245   1.426       .  A
C446        H449   1.082       .  S
C450        C477   1.489       .  S
C450        C451   1.388       .  A
C451        H456   1.084   1_556  S
C452        C559   1.468       .  S
C452        C453   1.388       .  A
C453        C454   1.412       .  A
C453        H457   1.084       .  S
C454        C655   1.434       .  A
C455        C654   1.434       .  A
C455        H458   1.082       .  S
Fe459       O475   2.063       .  S
Fe459       O465   2.063       .  S
Fe459       O472   2.054       .  S
Fe459       O464   2.098       .  S
Fe459       O470   1.969       .  S
Fe460       O463   2.098   1_554  S
Fe460       O467   2.116       .  S
Fe460       O471   2.126       .  S
Fe460       O476   2.081       .  S
Fe460       O470   1.989       .  S
Fe461       O479   2.074   1_554  S
Fe461       O466   2.131       .  S
Fe461       O473   2.112   1_554  S
Fe461       O462   2.040       .  S
Fe461       O470   1.982       .  S
O462        C469   1.268       .  A
O463        C477   1.282       .  A
O464        C469   1.270       .  A
O465        C468   1.264   1_554  A
O466        C478   1.281       .  A
O467        C480   1.274   1_554  A
C468        O473   1.285       .  A
C469        C481   1.484       .  S
O471        C474   1.276       .  A
O472        C474   1.262       .  A
C474        C499   1.502       .  S
O475        C480   1.272   1_554  A
O476        C478   1.277       .  A
C477        O479   1.264       .  A
C478        C508   1.517       .  S
C481        C482   1.401       .  A
C481        C486   1.433       .  A
C482        C483   1.383       .  A
C482        H487   1.084       .  S
C483        C545   1.468       .  S
C483        C484   1.388       .  A
C484        C485   1.395       .  A
C484        H488   1.085       .  S
C485        C486   1.431       .  A
C486        H489   1.082       .  S
C490       C1331   1.492       .  S
C490        C891   1.403   1_455  A
C490        C495   1.406       .  A
C491        C890   1.403       .  A
C491        C492   1.400   1_545  A
C491        H496   1.080       .  S
C492        C548   1.482       .  S
C492        C493   1.393       .  A
C493        C894   1.398   1_565  A
C493        H497   1.081       .  S
C494        C517   1.498       .  S
C494        C893   1.398   1_455  A
C494        C495   1.406       .  A
C495        H498   1.082       .  S
C499        C500   1.418       .  A
C499       C1304   1.436       .  A
C500       C1301   1.392       .  A
C500        H505   1.084       .  S
C501        C534   1.482       .  S
C501       C1300   1.392       .  A
C501        C502   1.383       .  A
C502        C503   1.393       .  A
C502        H506   1.083       .  S
C503        C504   1.430       .  A
C504       C1299   1.436       .  A
C504        H507   1.082       .  S
C508        C513   1.419       .  A
C509        C510   1.431       .  A
C509        H514   1.082       .  S
C510        C511   1.392       .  A
C511        H515   1.073       .  S
C512        C520   1.531       .  S
C512        C513   1.406       .  A
C513        H516   1.072       .  S
C517        C518   1.403       .  A
C518        C519   1.393       .  A
C518        C523   1.452       .  S
C519        C526   1.446       .  S
C520        C521   1.425       .  A
C521        C522   1.418       .  A
C521        C524   1.449       .  S
C522        C525   1.445       .  S
C523        N530   1.157       .  T
C524        N529   1.158       .  T
C525        N527   1.154   1_455  T
C526        N528   1.155       .  T
C531       C1290   1.492       .  S
C531       C1332   1.408       .  A
C531        C536   1.418       .  A
C532       C1331   1.408   1_655  A
C532        C533   1.390       .  A
C532        C537   1.448       .  S
C533       C1334   1.413   1_655  A
C533        C540   1.454       .  S
C534       C1333   1.413       .  A
C534        C535   1.408       .  A
C535        C536   1.417       .  A
C535        C538   1.447       .  S
C536        C539   1.449       .  S
C537        N544   1.158       .  T
C538        N543   1.157       .  T
C539        N541   1.157       .  T
C540        N542   1.157       .  T
C545        C546   1.393       .  A
C545        C550   1.402       .  A
C546        C547   1.404       .  A
C546        C551   1.451       .  S
C547        C548   1.424       .  A
C547        C554   1.438       .  S
C548        C549   1.407       .  A
C549        C550   1.394       .  A
C549        C552   1.446       .  S
C550        C553   1.438       .  S
C551        N558   1.157       .  T
C552        N557   1.157       .  T
C553        N555   1.150       .  T
C554        N556   1.152   1_565  T
C559        C564   1.412       .  A
C560        C561   1.409       .  A
C560        C565   1.450       .  S
C561        C568   1.449       .  S
C562        C563   1.408       .  A
C563        C564   1.395       .  A
C563        C566   1.445       .  S
C564        C567   1.457       .  S
C565        N572   1.157       .  T
C566        N571   1.154       .  T
C567        N569   1.157       .  T
C568        N570   1.157       .  T
C573       C1232   1.490       .  S
C573       C1574   1.398       .  A
C573        C578   1.414       .  A
C574       C1573   1.398       .  A
C574        C575   1.400       .  A
C574        C579   1.461   1_655  S
C575       C1576   1.428       .  A
C575        C582   1.436   1_655  S
C576       C1575   1.428       .  A
C576        C577   1.419       .  A
C577        C578   1.412       .  A
C577        C580   1.451       .  S
C578        C581   1.447       .  S
C579        N586   1.157       .  T
C580        N585   1.157       .  T
C581        N583   1.158       .  T
C582        N584   1.151       .  T
C587        C588   1.416       .  A
C587        C792   1.409       .  A
C588        C589   1.387       .  A
C588        C593   1.452       .  S
C589        C590   1.404       .  A
C589        C596   1.453       .  S
C590        C791   1.413       .  A
C591        C790   1.413       .  A
C591        C592   1.413       .  A
C591        C594   1.447       .  S
C592        C787   1.409       .  A
C592        C595   1.449       .  S
C593        N600   1.157       .  T
C594        N599   1.157       .  T
C595        N597   1.157       .  T
C596        N598   1.156       .  T
Fe601       O617   2.118       .  S
Fe601       O607   2.132       .  S
Fe601       O614   2.118       .  S
Fe601       O606   2.064       .  S
Fe601       O612   1.988       .  S
Fe602       O605   2.087       .  S
Fe602       O609   2.088       .  S
Fe602       O613   2.058       .  S
Fe602       O618   2.129       .  S
Fe602       O612   1.979       .  S
Fe603       O621   2.068       .  S
Fe603       O608   2.049       .  S
Fe603       O615   2.065       .  S
Fe603       O604   2.112       .  S
Fe603       O612   1.973       .  S
O604        C611   1.270       .  A
O605        C619   1.261       .  A
O606        C611   1.269       .  A
O607        C610   1.295       .  A
O608        C620   1.274       .  A
O609        C622   1.276       .  A
C610        O615   1.268       .  A
C610        C703   1.498       .  S
C611        C641   1.502       .  S
O613        C616   1.270       .  A
O614        C616   1.276       .  A
C616        C654   1.500       .  S
O617        C622   1.273       .  A
O618        C620   1.279       .  A
C619        O621   1.274       .  A
C619        C685   1.504       .  S
C620        C623   1.505       .  S
C622        C710   1.508       .  S
C623        C624   1.412       .  A
C624        C625   1.388   1_556  A
C624        H629   1.084       .  S
C625        C787   1.473       .  S
C626        C627   1.392       .  A
C626        H630   1.083       .  S
C627        C668   1.487       .  S
C627        C628   1.429       .  A
C628        H631   1.083       .  S
C632       C1573   1.490       .  S
C632       C1033   1.396       .  A
C632        C637   1.405   1_655  A
C633       C1032   1.396   1_565  A
C633        C634   1.409       .  A
C633        H638   1.079       .  S
C634        C790   1.472       .  S
C634        C635   1.396       .  A
C635       C1036   1.400       .  A
C635        H639   1.083       .  S
C636        C762   1.476       .  S
C636       C1035   1.400       .  A
C636        C637   1.390       .  A
C637        H640   1.084       .  S
C641        C642   1.408       .  A
C642        C643   1.404       .  A
C642        H647   1.081       .  S
C643        C776   1.508   1_556  S
C643       C1244   1.393       .  A
C644       C1243   1.393   1_455  A
C644        C645   1.404       .  A
C644        H648   1.079       .  S
C645        C680   1.508       .  S
C645       C1446   1.426   1_455  A
C646       C1445   1.426       .  A
C646        H649   1.082       .  S
C650        C677   1.489       .  S
C650        C651   1.388       .  A
C651        H656   1.084       .  S
C652        C759   1.468   1_556  S
C652        C653   1.388       .  A
C653        C654   1.412       .  A
C653        H657   1.084       .  S
C655        H658   1.082       .  S
Fe659       O675   2.063       .  S
Fe659       O665   2.063       .  S
Fe659       O672   2.054       .  S
Fe659       O664   2.098       .  S
Fe659       O670   1.969       .  S
Fe660       O663   2.098       .  S
Fe660       O667   2.116       .  S
Fe660       O671   2.126       .  S
Fe660       O676   2.081       .  S
Fe660       O670   1.989       .  S
Fe661       O679   2.074       .  S
Fe661       O666   2.131       .  S
Fe661       O673   2.112       .  S
Fe661       O662   2.040       .  S
Fe661       O670   1.982       .  S
O662        C669   1.268       .  A
O663        C677   1.282       .  A
O664        C669   1.270       .  A
O665        C668   1.264       .  A
O666        C678   1.281       .  A
O667        C680   1.274       .  A
C668        O673   1.285       .  A
C669        C681   1.484       .  S
O671        C674   1.276       .  A
O672        C674   1.262       .  A
C674        C699   1.502       .  S
O675        C680   1.272       .  A
O676        C678   1.277       .  A
C677        O679   1.264       .  A
C678        C708   1.517       .  S
C681        C682   1.401       .  A
C681        C686   1.433       .  A
C682        C683   1.383       .  A
C682        H687   1.084       .  S
C683        C745   1.468       .  S
C683        C684   1.388       .  A
C684        C685   1.395       .  A
C684        H688   1.085       .  S
C685        C686   1.431       .  A
C686        H689   1.082       .  S
C690       C1531   1.492       .  S
C690       C1091   1.403   1_455  A
C690        C695   1.406       .  A
C691       C1090   1.403       .  A
C691        C692   1.400   1_545  A
C691        H696   1.080       .  S
C692        C748   1.482       .  S
C692        C693   1.393       .  A
C693       C1094   1.398   1_565  A
C693        H697   1.081       .  S
C694        C717   1.498       .  S
C694       C1093   1.398   1_455  A
C694        C695   1.406       .  A
C695        H698   1.082       .  S
C699        C700   1.418       .  A
C699       C1504   1.436       .  A
C700       C1501   1.392       .  A
C700        H705   1.084       .  S
C701        C734   1.482       .  S
C701       C1500   1.392       .  A
C701        C702   1.383       .  A
C702        C703   1.393       .  A
C702        H706   1.083       .  S
C703        C704   1.430       .  A
C704       C1499   1.436       .  A
C704        H707   1.082       .  S
C708        C713   1.419       .  A
C709        C710   1.431       .  A
C709        H714   1.082       .  S
C710        C711   1.392       .  A
C711        H715   1.073       .  S
C712        C720   1.531       .  S
C712        C713   1.406       .  A
C713        H716   1.072       .  S
C717        C718   1.403       .  A
C718        C719   1.393       .  A
C718        C723   1.452       .  S
C719        C726   1.446       .  S
C720        C721   1.425       .  A
C721        C722   1.418       .  A
C721        C724   1.449       .  S
C722        C725   1.445       .  S
C723        N730   1.157       .  T
C724        N729   1.158       .  T
C725        N727   1.154   1_455  T
C726        N728   1.155       .  T
C731       C1490   1.492       .  S
C731       C1532   1.408       .  A
C731        C736   1.418       .  A
C732       C1531   1.408   1_655  A
C732        C733   1.390       .  A
C732        C737   1.448       .  S
C733       C1534   1.413   1_655  A
C733        C740   1.454       .  S
C734       C1533   1.413       .  A
C734        C735   1.408       .  A
C735        C736   1.417       .  A
C735        C738   1.447       .  S
C736        C739   1.449       .  S
C737        N744   1.158       .  T
C738        N743   1.157       .  T
C739        N741   1.157       .  T
C740        N742   1.157       .  T
C745        C746   1.393       .  A
C745        C750   1.402       .  A
C746        C747   1.404       .  A
C746        C751   1.451       .  S
C747        C748   1.424       .  A
C747        C754   1.438       .  S
C748        C749   1.407       .  A
C749        C750   1.394       .  A
C749        C752   1.446       .  S
C750        C753   1.438       .  S
C751        N758   1.157       .  T
C752        N757   1.157       .  T
C753        N755   1.150       .  T
C754        N756   1.152   1_565  T
C759        C764   1.412   1_554  A
C760        C761   1.409       .  A
C760        C765   1.450       .  S
C761        C768   1.449       .  S
C762        C763   1.408   1_554  A
C763        C764   1.395       .  A
C763        C766   1.445       .  S
C764        C767   1.457       .  S
C765        N772   1.157       .  T
C766        N771   1.154       .  T
C767        N769   1.157       .  T
C768        N770   1.157       .  T
C773       C1432   1.490       .  S
C773       C1374   1.398       .  A
C773        C778   1.414       .  A
C774       C1373   1.398       .  A
C774        C775   1.400       .  A
C774        C779   1.461   1_655  S
C775       C1376   1.428       .  A
C775        C782   1.436   1_655  S
C776       C1375   1.428       .  A
C776        C777   1.419       .  A
C777        C778   1.412       .  A
C777        C780   1.451   1_554  S
C778        C781   1.447       .  S
C779        N786   1.157       .  T
C780        N785   1.157       .  T
C781        N783   1.158       .  T
C782        N784   1.151       .  T
C787        C788   1.416       .  A
C788        C789   1.387       .  A
C788        C793   1.452   1_554  S
C789        C790   1.404       .  A
C789        C796   1.453   1_554  S
C791        C792   1.413       .  A
C791        C794   1.447       .  S
C792        C795   1.449       .  S
C793        N800   1.157       .  T
C794        N799   1.157       .  T
C795        N797   1.157       .  T
C796        N798   1.156       .  T
Fe801       O817   2.118       .  S
Fe801       O807   2.132       .  S
Fe801       O814   2.118       .  S
Fe801       O806   2.064       .  S
Fe801       O812   1.988       .  S
Fe802       O805   2.087       .  S
Fe802       O809   2.088       .  S
Fe802       O813   2.058       .  S
Fe802       O818   2.129       .  S
Fe802       O812   1.979       .  S
Fe803       O821   2.068       .  S
Fe803       O808   2.049       .  S
Fe803       O815   2.065       .  S
Fe803       O804   2.112       .  S
Fe803       O812   1.973       .  S
O804        C811   1.270       .  A
O805        C819   1.261       .  A
O806        C811   1.269       .  A
O807        C810   1.295       .  A
O808        C820   1.274       .  A
O809        C822   1.276       .  A
C810        O815   1.268       .  A
C810        C903   1.498       .  S
C811        C841   1.502       .  S
O813        C816   1.270       .  A
O814        C816   1.276       .  A
C816        C854   1.500       .  S
O817        C822   1.273       .  A
O818        C820   1.279       .  A
C819        O821   1.274       .  A
C819        C885   1.504       .  S
C820        C823   1.505       .  S
C822        C910   1.508       .  S
C823        C824   1.412       .  A
C823       C1028   1.435       .  A
C824        C825   1.388       .  A
C824        H829   1.084       .  S
C825        C987   1.473       .  S
C825       C1026   1.379       .  A
C826       C1025   1.379       .  A
C826        C827   1.392   1_554  A
C826        H830   1.083       .  S
C827        C868   1.487       .  S
C827        C828   1.429       .  A
C828       C1023   1.435       .  A
C828        H831   1.083       .  S
C832        C837   1.405       .  A
C833        C834   1.409       .  A
C833        H838   1.079       .  S
C834        C990   1.472       .  S
C834        C835   1.396   1_655  A
C835        H839   1.083       .  S
C836        C962   1.476   1_565  S
C836        C837   1.390   1_565  A
C837        H840   1.084       .  S
C841        C842   1.408       .  A
C841       C1046   1.430       .  A
C842        C843   1.404       .  A
C842        H847   1.081       .  S
C843        C976   1.508       .  S
C844        C845   1.404       .  A
C844        H848   1.079       .  S
C845        C880   1.508       .  S
C846       C1041   1.430       .  A
C846        H849   1.082   1_655  S
C850        C877   1.489       .  S
C850        C851   1.388       .  A
C850       C1255   1.431       .  A
C851       C1452   1.378       .  A
C851        H856   1.084   1_556  S
C852        C959   1.468       .  S
C852       C1451   1.378   1_545  A
C852        C853   1.388       .  A
C853        C854   1.412       .  A
C853        H857   1.084       .  S
C854       C1055   1.434   1_545  A
C855       C1250   1.431       .  A
C855       C1054   1.434   1_565  A
C855        H858   1.082       .  S
Fe859       O875   2.063       .  S
Fe859       O865   2.063       .  S
Fe859       O872   2.054       .  S
Fe859       O864   2.098       .  S
Fe859       O870   1.969       .  S
Fe860       O863   2.098   1_554  S
Fe860       O867   2.116       .  S
Fe860       O871   2.126       .  S
Fe860       O876   2.081       .  S
Fe860       O870   1.989       .  S
Fe861       O879   2.074   1_554  S
Fe861       O866   2.131       .  S
Fe861       O873   2.112   1_554  S
Fe861       O862   2.040       .  S
Fe861       O870   1.982       .  S
O862        C869   1.268       .  A
O863        C877   1.282       .  A
O864        C869   1.270       .  A
O865        C868   1.264   1_554  A
O866        C878   1.281       .  A
O867        C880   1.274   1_554  A
C868        O873   1.285       .  A
C869        C881   1.484       .  S
O871        C874   1.276       .  A
O872        C874   1.262       .  A
C874        C899   1.502       .  S
O875        C880   1.272   1_554  A
O876        C878   1.277       .  A
C877        O879   1.264       .  A
C878        C908   1.517       .  S
C881        C882   1.401       .  A
C881        C886   1.433       .  A
C882        C883   1.383       .  A
C882        H887   1.084       .  S
C883        C945   1.468       .  S
C883        C884   1.388       .  A
C884        C885   1.395       .  A
C884        H888   1.085       .  S
C885        C886   1.431       .  A
C886        H889   1.082       .  S
C890        C895   1.406       .  A
C891        C892   1.400       .  A
C891        H896   1.080       .  S
C892        C948   1.482       .  S
C892        C893   1.393       .  A
C893        H897   1.081       .  S
C894        C917   1.498       .  S
C894        C895   1.406       .  A
C895        H898   1.082       .  S
C899        C900   1.418       .  A
C900        H905   1.084       .  S
C901        C934   1.482       .  S
C901        C902   1.383       .  A
C902        C903   1.393   1_455  A
C902        H906   1.083   1_455  S
C903        C904   1.430   1_655  A
C904        H907   1.082   1_455  S
C908       C1309   1.439       .  A
C908        C913   1.419       .  A
C909       C1308   1.439   1_545  A
C909        C910   1.431       .  A
C909        H914   1.082       .  S
C910        C911   1.392       .  A
C911       C1312   1.389   1_545  A
C911        H915   1.073       .  S
C912        C920   1.531       .  S
C912       C1311   1.389       .  A
C912        C913   1.406       .  A
C913        H916   1.072       .  S
C917        C918   1.403       .  A
C917       C1322   1.421   1_545  A
C918        C919   1.393       .  A
C918        C923   1.452       .  S
C919       C1320   1.425   1_545  A
C919        C926   1.446       .  S
C920       C1319   1.425       .  A
C920        C921   1.425       .  A
C921        C922   1.418       .  A
C921        C924   1.449       .  S
C922       C1317   1.421       .  A
C922        C925   1.445       .  S
C923        N930   1.157       .  T
C924        N929   1.158       .  T
C925        N927   1.154       .  T
C926        N928   1.155       .  T
C931        C936   1.418       .  A
C932        C933   1.390       .  A
C932        C937   1.448       .  S
C933        C940   1.454       .  S
C934        C935   1.408       .  A
C935        C936   1.417       .  A
C935        C938   1.447       .  S
C936        C939   1.449       .  S
C937        N944   1.158       .  T
C938        N943   1.157       .  T
C939        N941   1.157       .  T
C940        N942   1.157       .  T
C945        C946   1.393       .  A
C945        C950   1.402       .  A
C946        C947   1.404       .  A
C946        C951   1.451       .  S
C947        C948   1.424       .  A
C947        C954   1.438       .  S
C948        C949   1.407       .  A
C949        C950   1.394       .  A
C949        C952   1.446       .  S
C950        C953   1.438       .  S
C951        N958   1.157       .  T
C952        N957   1.157       .  T
C953        N955   1.150       .  T
C954        N956   1.152       .  T
C959       C1560   1.408       .  A
C959        C964   1.412   1_545  A
C960       C1559   1.408       .  A
C960        C961   1.409       .  A
C960        C965   1.450       .  S
C961       C1562   1.413       .  A
C961        C968   1.449       .  S
C962       C1561   1.413       .  A
C962        C963   1.408   1_545  A
C963        C964   1.395       .  A
C963        C966   1.445       .  S
C964        C967   1.457       .  S
C965        N972   1.157       .  T
C966        N971   1.154       .  T
C967        N969   1.157       .  T
C968        N970   1.157       .  T
C973        C978   1.414       .  A
C974        C975   1.400       .  A
C974        C979   1.461       .  S
C975        C982   1.436       .  S
C976        C977   1.419       .  A
C977        C978   1.412       .  A
C977        C980   1.451       .  S
C978        C981   1.447   1_545  S
C979        N986   1.157       .  T
C980        N985   1.157       .  T
C981        N983   1.158       .  T
C982        N984   1.151       .  T
C987        C988   1.416       .  A
C987       C1192   1.409       .  A
C988        C989   1.387       .  A
C988        C993   1.452       .  S
C989        C990   1.404       .  A
C989        C996   1.453       .  S
C990       C1191   1.413       .  A
C991       C1190   1.413       .  A
C991        C992   1.413       .  A
C991        C994   1.447       .  S
C992       C1187   1.409       .  A
C992        C995   1.449       .  S
C993       N1000   1.157       .  T
C994        N999   1.157       .  T
C995        N997   1.157       .  T
C996        N998   1.156       .  T
Fe1001     O1017   2.118       .  S
Fe1001     O1007   2.132       .  S
Fe1001     O1014   2.118       .  S
Fe1001     O1006   2.064       .  S
Fe1001     O1012   1.988       .  S
Fe1002     O1005   2.087       .  S
Fe1002     O1009   2.088       .  S
Fe1002     O1013   2.058       .  S
Fe1002     O1018   2.129       .  S
Fe1002     O1012   1.979       .  S
Fe1003     O1021   2.068       .  S
Fe1003     O1008   2.049       .  S
Fe1003     O1015   2.065       .  S
Fe1003     O1004   2.112       .  S
Fe1003     O1012   1.973       .  S
O1004      C1011   1.270       .  A
O1005      C1019   1.261       .  A
O1006      C1011   1.269       .  A
O1007      C1010   1.295       .  A
O1008      C1020   1.274       .  A
O1009      C1022   1.276       .  A
C1010      O1015   1.268       .  A
C1010      C1103   1.498       .  S
C1011      C1041   1.502       .  S
O1013      C1016   1.270       .  A
O1014      C1016   1.276       .  A
C1016      C1054   1.500       .  S
O1017      C1022   1.273       .  A
O1018      C1020   1.279       .  A
C1019      O1021   1.274       .  A
C1019      C1085   1.504       .  S
C1020      C1023   1.505       .  S
C1022      C1110   1.508       .  S
C1023      C1024   1.412       .  A
C1024      C1025   1.388   1_556  A
C1024      H1029   1.084       .  S
C1025      C1187   1.473       .  S
C1026      C1027   1.392       .  A
C1026      H1030   1.083       .  S
C1027      C1068   1.487       .  S
C1027      C1028   1.429       .  A
C1028      H1031   1.083       .  S
C1032      C1037   1.405       .  A
C1033      C1034   1.409       .  A
C1033      H1038   1.079       .  S
C1034      C1190   1.472       .  S
C1034      C1035   1.396   1_655  A
C1035      H1039   1.083       .  S
C1036      C1162   1.476   1_565  S
C1036      C1037   1.390   1_565  A
C1037      H1040   1.084       .  S
C1041      C1042   1.408       .  A
C1042      C1043   1.404       .  A
C1042      H1047   1.081       .  S
C1043      C1176   1.508   1_556  S
C1044      C1045   1.404       .  A
C1044      H1048   1.079       .  S
C1045      C1080   1.508       .  S
C1046      H1049   1.082   1_655  S
C1050      C1077   1.489       .  S
C1050      C1051   1.388       .  A
C1050      C1455   1.431       .  A
C1051      C1252   1.378       .  A
C1051      H1056   1.084       .  S
C1052      C1159   1.468   1_556  S
C1052      C1251   1.378   1_545  A
C1052      C1053   1.388       .  A
C1053      C1054   1.412       .  A
C1053      H1057   1.084       .  S
C1055      C1450   1.431       .  A
C1055      H1058   1.082       .  S
Fe1059     O1075   2.063       .  S
Fe1059     O1065   2.063       .  S
Fe1059     O1072   2.054       .  S
Fe1059     O1064   2.098       .  S
Fe1059     O1070   1.969       .  S
Fe1060     O1063   2.098       .  S
Fe1060     O1067   2.116       .  S
Fe1060     O1071   2.126       .  S
Fe1060     O1076   2.081       .  S
Fe1060     O1070   1.989       .  S
Fe1061     O1079   2.074       .  S
Fe1061     O1066   2.131       .  S
Fe1061     O1073   2.112       .  S
Fe1061     O1062   2.040       .  S
Fe1061     O1070   1.982       .  S
O1062      C1069   1.268       .  A
O1063      C1077   1.282       .  A
O1064      C1069   1.270       .  A
O1065      C1068   1.264       .  A
O1066      C1078   1.281       .  A
O1067      C1080   1.274       .  A
C1068      O1073   1.285       .  A
C1069      C1081   1.484       .  S
O1071      C1074   1.276       .  A
O1072      C1074   1.262       .  A
C1074      C1099   1.502       .  S
O1075      C1080   1.272       .  A
O1076      C1078   1.277       .  A
C1077      O1079   1.264       .  A
C1078      C1108   1.517       .  S
C1081      C1082   1.401       .  A
C1081      C1086   1.433       .  A
C1082      C1083   1.383       .  A
C1082      H1087   1.084       .  S
C1083      C1145   1.468       .  S
C1083      C1084   1.388       .  A
C1084      C1085   1.395       .  A
C1084      H1088   1.085       .  S
C1085      C1086   1.431       .  A
C1086      H1089   1.082       .  S
C1090      C1095   1.406       .  A
C1091      C1092   1.400       .  A
C1091      H1096   1.080       .  S
C1092      C1148   1.482       .  S
C1092      C1093   1.393       .  A
C1093      H1097   1.081       .  S
C1094      C1117   1.498       .  S
C1094      C1095   1.406       .  A
C1095      H1098   1.082       .  S
C1099      C1100   1.418       .  A
C1100      H1105   1.084       .  S
C1101      C1134   1.482       .  S
C1101      C1102   1.383       .  A
C1102      C1103   1.393   1_455  A
C1102      H1106   1.083   1_455  S
C1103      C1104   1.430   1_655  A
C1104      H1107   1.082   1_455  S
C1108      C1509   1.439       .  A
C1108      C1113   1.419       .  A
C1109      C1508   1.439   1_545  A
C1109      C1110   1.431       .  A
C1109      H1114   1.082       .  S
C1110      C1111   1.392       .  A
C1111      C1512   1.389   1_545  A
C1111      H1115   1.073       .  S
C1112      C1120   1.531       .  S
C1112      C1511   1.389       .  A
C1112      C1113   1.406       .  A
C1113      H1116   1.072       .  S
C1117      C1118   1.403       .  A
C1117      C1522   1.421   1_545  A
C1118      C1119   1.393       .  A
C1118      C1123   1.452       .  S
C1119      C1520   1.425   1_545  A
C1119      C1126   1.446       .  S
C1120      C1519   1.425       .  A
C1120      C1121   1.425       .  A
C1121      C1122   1.418       .  A
C1121      C1124   1.449       .  S
C1122      C1517   1.421       .  A
C1122      C1125   1.445       .  S
C1123      N1130   1.157       .  T
C1124      N1129   1.158       .  T
C1125      N1127   1.154       .  T
C1126      N1128   1.155       .  T
C1131      C1136   1.418       .  A
C1132      C1133   1.390       .  A
C1132      C1137   1.448       .  S
C1133      C1140   1.454       .  S
C1134      C1135   1.408       .  A
C1135      C1136   1.417       .  A
C1135      C1138   1.447       .  S
C1136      C1139   1.449       .  S
C1137      N1144   1.158       .  T
C1138      N1143   1.157       .  T
C1139      N1141   1.157       .  T
C1140      N1142   1.157       .  T
C1145      C1146   1.393       .  A
C1145      C1150   1.402       .  A
C1146      C1147   1.404       .  A
C1146      C1151   1.451       .  S
C1147      C1148   1.424       .  A
C1147      C1154   1.438       .  S
C1148      C1149   1.407       .  A
C1149      C1150   1.394       .  A
C1149      C1152   1.446       .  S
C1150      C1153   1.438       .  S
C1151      N1158   1.157       .  T
C1152      N1157   1.157       .  T
C1153      N1155   1.150       .  T
C1154      N1156   1.152       .  T
C1159      C1360   1.408       .  A
C1159      C1164   1.412   1_544  A
C1160      C1359   1.408       .  A
C1160      C1161   1.409       .  A
C1160      C1165   1.450       .  S
C1161      C1362   1.413       .  A
C1161      C1168   1.449       .  S
C1162      C1361   1.413       .  A
C1162      C1163   1.408   1_544  A
C1163      C1164   1.395       .  A
C1163      C1166   1.445       .  S
C1164      C1167   1.457       .  S
C1165      N1172   1.157       .  T
C1166      N1171   1.154       .  T
C1167      N1169   1.157       .  T
C1168      N1170   1.157       .  T
C1173      C1178   1.414       .  A
C1174      C1175   1.400       .  A
C1174      C1179   1.461       .  S
C1175      C1182   1.436       .  S
C1176      C1177   1.419       .  A
C1177      C1178   1.412       .  A
C1177      C1180   1.451   1_554  S
C1178      C1181   1.447   1_545  S
C1179      N1186   1.157       .  T
C1180      N1185   1.157       .  T
C1181      N1183   1.158       .  T
C1182      N1184   1.151       .  T
C1187      C1188   1.416       .  A
C1188      C1189   1.387       .  A
C1188      C1193   1.452   1_554  S
C1189      C1190   1.404       .  A
C1189      C1196   1.453   1_554  S
C1191      C1192   1.413       .  A
C1191      C1194   1.447       .  S
C1192      C1195   1.449       .  S
C1193      N1200   1.157       .  T
C1194      N1199   1.157       .  T
C1195      N1197   1.157       .  T
C1196      N1198   1.156       .  T
Fe1201     O1217   2.118       .  S
Fe1201     O1207   2.132       .  S
Fe1201     O1214   2.118       .  S
Fe1201     O1206   2.064       .  S
Fe1201     O1212   1.988       .  S
Fe1202     O1205   2.087       .  S
Fe1202     O1209   2.088       .  S
Fe1202     O1213   2.058       .  S
Fe1202     O1218   2.129       .  S
Fe1202     O1212   1.979       .  S
Fe1203     O1221   2.068       .  S
Fe1203     O1208   2.049       .  S
Fe1203     O1215   2.065       .  S
Fe1203     O1204   2.112       .  S
Fe1203     O1212   1.973       .  S
O1204      C1211   1.270       .  A
O1205      C1219   1.261       .  A
O1206      C1211   1.269       .  A
O1207      C1210   1.295       .  A
O1208      C1220   1.274       .  A
O1209      C1222   1.276       .  A
C1210      O1215   1.268       .  A
C1210      C1303   1.498       .  S
C1211      C1241   1.502       .  S
O1213      C1216   1.270       .  A
O1214      C1216   1.276       .  A
C1216      C1254   1.500       .  S
O1217      C1222   1.273       .  A
O1218      C1220   1.279       .  A
C1219      O1221   1.274       .  A
C1219      C1285   1.504       .  S
C1220      C1223   1.505       .  S
C1222      C1310   1.508       .  S
C1223      C1224   1.412       .  A
C1223      C1428   1.435       .  A
C1224      C1225   1.388       .  A
C1224      H1229   1.084       .  S
C1225      C1387   1.473       .  S
C1225      C1426   1.379       .  A
C1226      C1425   1.379       .  A
C1226      C1227   1.392   1_554  A
C1226      H1230   1.083       .  S
C1227      C1268   1.487       .  S
C1227      C1228   1.429       .  A
C1228      C1423   1.435       .  A
C1228      H1231   1.083       .  S
C1232      C1237   1.405       .  A
C1233      C1234   1.409       .  A
C1233      H1238   1.079       .  S
C1234      C1390   1.472       .  S
C1234      C1235   1.396   1_655  A
C1235      H1239   1.083       .  S
C1236      C1362   1.476       .  S
C1236      C1237   1.390       .  A
C1237      H1240   1.084       .  S
C1241      C1242   1.408       .  A
C1241      C1446   1.430       .  A
C1242      C1243   1.404       .  A
C1242      H1247   1.081       .  S
C1243      C1376   1.508       .  S
C1244      C1245   1.404       .  A
C1244      H1248   1.079       .  S
C1245      C1280   1.508       .  S
C1246      C1441   1.430       .  A
C1246      H1249   1.082   1_655  S
C1250      C1277   1.489       .  S
C1250      C1251   1.388       .  A
C1251      H1256   1.084   1_556  S
C1252      C1359   1.468       .  S
C1252      C1253   1.388       .  A
C1253      C1254   1.412       .  A
C1253      H1257   1.084       .  S
C1254      C1455   1.434       .  A
C1255      C1454   1.434       .  A
C1255      H1258   1.082       .  S
Fe1259     O1275   2.063       .  S
Fe1259     O1265   2.063       .  S
Fe1259     O1272   2.054       .  S
Fe1259     O1264   2.098       .  S
Fe1259     O1270   1.969       .  S
Fe1260     O1263   2.098   1_554  S
Fe1260     O1267   2.116       .  S
Fe1260     O1271   2.126       .  S
Fe1260     O1276   2.081       .  S
Fe1260     O1270   1.989       .  S
Fe1261     O1279   2.074   1_554  S
Fe1261     O1266   2.131       .  S
Fe1261     O1273   2.112   1_554  S
Fe1261     O1262   2.040       .  S
Fe1261     O1270   1.982       .  S
O1262      C1269   1.268       .  A
O1263      C1277   1.282       .  A
O1264      C1269   1.270       .  A
O1265      C1268   1.264   1_554  A
O1266      C1278   1.281       .  A
O1267      C1280   1.274   1_554  A
C1268      O1273   1.285       .  A
C1269      C1281   1.484       .  S
O1271      C1274   1.276       .  A
O1272      C1274   1.262       .  A
C1274      C1299   1.502       .  S
O1275      C1280   1.272   1_554  A
O1276      C1278   1.277       .  A
C1277      O1279   1.264       .  A
C1278      C1308   1.517       .  S
C1281      C1282   1.401       .  A
C1281      C1286   1.433       .  A
C1282      C1283   1.383       .  A
C1282      H1287   1.084       .  S
C1283      C1345   1.468       .  S
C1283      C1284   1.388       .  A
C1284      C1285   1.395       .  A
C1284      H1288   1.085       .  S
C1285      C1286   1.431       .  A
C1286      H1289   1.082       .  S
C1290      C1295   1.406       .  A
C1291      C1292   1.400   1_545  A
C1291      H1296   1.080       .  S
C1292      C1348   1.482       .  S
C1292      C1293   1.393       .  A
C1293      H1297   1.081       .  S
C1294      C1317   1.498       .  S
C1294      C1295   1.406       .  A
C1295      H1298   1.082       .  S
C1299      C1300   1.418       .  A
C1300      H1305   1.084       .  S
C1301      C1334   1.482       .  S
C1301      C1302   1.383       .  A
C1302      C1303   1.393   1_455  A
C1302      H1306   1.083   1_455  S
C1303      C1304   1.430   1_655  A
C1304      H1307   1.082   1_455  S
C1308      C1313   1.419       .  A
C1309      C1310   1.431       .  A
C1309      H1314   1.082       .  S
C1310      C1311   1.392       .  A
C1311      H1315   1.073       .  S
C1312      C1320   1.531       .  S
C1312      C1313   1.406       .  A
C1313      H1316   1.072       .  S
C1317      C1318   1.403       .  A
C1318      C1319   1.393       .  A
C1318      C1323   1.452       .  S
C1319      C1326   1.446       .  S
C1320      C1321   1.425       .  A
C1321      C1322   1.418       .  A
C1321      C1324   1.449       .  S
C1322      C1325   1.445       .  S
C1323      N1330   1.157       .  T
C1324      N1329   1.158       .  T
C1325      N1327   1.154       .  T
C1326      N1328   1.155       .  T
C1331      C1336   1.418       .  A
C1332      C1333   1.390       .  A
C1332      C1337   1.448       .  S
C1333      C1340   1.454       .  S
C1334      C1335   1.408       .  A
C1335      C1336   1.417       .  A
C1335      C1338   1.447       .  S
C1336      C1339   1.449       .  S
C1337      N1344   1.158       .  T
C1338      N1343   1.157       .  T
C1339      N1341   1.157       .  T
C1340      N1342   1.157       .  T
C1345      C1346   1.393       .  A
C1345      C1350   1.402       .  A
C1346      C1347   1.404       .  A
C1346      C1351   1.451       .  S
C1347      C1348   1.424       .  A
C1347      C1354   1.438       .  S
C1348      C1349   1.407       .  A
C1349      C1350   1.394       .  A
C1349      C1352   1.446       .  S
C1350      C1353   1.438       .  S
C1351      N1358   1.157       .  T
C1352      N1357   1.157       .  T
C1353      N1355   1.150       .  T
C1354      N1356   1.152   1_565  T
C1359      C1364   1.412       .  A
C1360      C1361   1.409       .  A
C1360      C1365   1.450       .  S
C1361      C1368   1.449       .  S
C1362      C1363   1.408       .  A
C1363      C1364   1.395       .  A
C1363      C1366   1.445       .  S
C1364      C1367   1.457       .  S
C1365      N1372   1.157       .  T
C1366      N1371   1.154       .  T
C1367      N1369   1.157       .  T
C1368      N1370   1.157       .  T
C1373      C1378   1.414       .  A
C1374      C1375   1.400       .  A
C1374      C1379   1.461       .  S
C1375      C1382   1.436       .  S
C1376      C1377   1.419       .  A
C1377      C1378   1.412       .  A
C1377      C1380   1.451       .  S
C1378      C1381   1.447       .  S
C1379      N1386   1.157       .  T
C1380      N1385   1.157       .  T
C1381      N1383   1.158       .  T
C1382      N1384   1.151       .  T
C1387      C1388   1.416       .  A
C1387      C1592   1.409       .  A
C1388      C1389   1.387       .  A
C1388      C1393   1.452       .  S
C1389      C1390   1.404       .  A
C1389      C1396   1.453       .  S
C1390      C1591   1.413       .  A
C1391      C1590   1.413       .  A
C1391      C1392   1.413       .  A
C1391      C1394   1.447       .  S
C1392      C1587   1.409       .  A
C1392      C1395   1.449       .  S
C1393      N1400   1.157       .  T
C1394      N1399   1.157       .  T
C1395      N1397   1.157       .  T
C1396      N1398   1.156       .  T
Fe1401     O1417   2.118       .  S
Fe1401     O1407   2.132       .  S
Fe1401     O1414   2.118       .  S
Fe1401     O1406   2.064       .  S
Fe1401     O1412   1.988       .  S
Fe1402     O1405   2.087       .  S
Fe1402     O1409   2.088       .  S
Fe1402     O1413   2.058       .  S
Fe1402     O1418   2.129       .  S
Fe1402     O1412   1.979       .  S
Fe1403     O1421   2.068       .  S
Fe1403     O1408   2.049       .  S
Fe1403     O1415   2.065       .  S
Fe1403     O1404   2.112       .  S
Fe1403     O1412   1.973       .  S
O1404      C1411   1.270       .  A
O1405      C1419   1.261       .  A
O1406      C1411   1.269       .  A
O1407      C1410   1.295       .  A
O1408      C1420   1.274       .  A
O1409      C1422   1.276       .  A
C1410      O1415   1.268       .  A
C1410      C1503   1.498       .  S
C1411      C1441   1.502       .  S
O1413      C1416   1.270       .  A
O1414      C1416   1.276       .  A
C1416      C1454   1.500       .  S
O1417      C1422   1.273       .  A
O1418      C1420   1.279       .  A
C1419      O1421   1.274       .  A
C1419      C1485   1.504       .  S
C1420      C1423   1.505       .  S
C1422      C1510   1.508       .  S
C1423      C1424   1.412       .  A
C1424      C1425   1.388   1_556  A
C1424      H1429   1.084       .  S
C1425      C1587   1.473       .  S
C1426      C1427   1.392       .  A
C1426      H1430   1.083       .  S
C1427      C1468   1.487       .  S
C1427      C1428   1.429       .  A
C1428      H1431   1.083       .  S
C1432      C1437   1.405       .  A
C1433      C1434   1.409       .  A
C1433      H1438   1.079       .  S
C1434      C1590   1.472       .  S
C1434      C1435   1.396   1_655  A
C1435      H1439   1.083       .  S
C1436      C1562   1.476       .  S
C1436      C1437   1.390       .  A
C1437      H1440   1.084       .  S
C1441      C1442   1.408       .  A
C1442      C1443   1.404       .  A
C1442      H1447   1.081       .  S
C1443      C1576   1.508   1_556  S
C1444      C1445   1.404       .  A
C1444      H1448   1.079       .  S
C1445      C1480   1.508       .  S
C1446      H1449   1.082   1_655  S
C1450      C1477   1.489       .  S
C1450      C1451   1.388       .  A
C1451      H1456   1.084       .  S
C1452      C1559   1.468   1_556  S
C1452      C1453   1.388       .  A
C1453      C1454   1.412       .  A
C1453      H1457   1.084       .  S
C1455      H1458   1.082       .  S
Fe1459     O1475   2.063       .  S
Fe1459     O1465   2.063       .  S
Fe1459     O1472   2.054       .  S
Fe1459     O1464   2.098       .  S
Fe1459     O1470   1.969       .  S
Fe1460     O1463   2.098       .  S
Fe1460     O1467   2.116       .  S
Fe1460     O1471   2.126       .  S
Fe1460     O1476   2.081       .  S
Fe1460     O1470   1.989       .  S
Fe1461     O1479   2.074       .  S
Fe1461     O1466   2.131       .  S
Fe1461     O1473   2.112       .  S
Fe1461     O1462   2.040       .  S
Fe1461     O1470   1.982       .  S
O1462      C1469   1.268       .  A
O1463      C1477   1.282       .  A
O1464      C1469   1.270       .  A
O1465      C1468   1.264       .  A
O1466      C1478   1.281       .  A
O1467      C1480   1.274       .  A
C1468      O1473   1.285       .  A
C1469      C1481   1.484       .  S
O1471      C1474   1.276       .  A
O1472      C1474   1.262       .  A
C1474      C1499   1.502       .  S
O1475      C1480   1.272       .  A
O1476      C1478   1.277       .  A
C1477      O1479   1.264       .  A
C1478      C1508   1.517       .  S
C1481      C1482   1.401       .  A
C1481      C1486   1.433       .  A
C1482      C1483   1.383       .  A
C1482      H1487   1.084       .  S
C1483      C1545   1.468       .  S
C1483      C1484   1.388       .  A
C1484      C1485   1.395       .  A
C1484      H1488   1.085       .  S
C1485      C1486   1.431       .  A
C1486      H1489   1.082       .  S
C1490      C1495   1.406       .  A
C1491      C1492   1.400   1_545  A
C1491      H1496   1.080       .  S
C1492      C1548   1.482       .  S
C1492      C1493   1.393       .  A
C1493      H1497   1.081       .  S
C1494      C1517   1.498       .  S
C1494      C1495   1.406       .  A
C1495      H1498   1.082       .  S
C1499      C1500   1.418       .  A
C1500      H1505   1.084       .  S
C1501      C1534   1.482       .  S
C1501      C1502   1.383       .  A
C1502      C1503   1.393   1_455  A
C1502      H1506   1.083   1_455  S
C1503      C1504   1.430   1_655  A
C1504      H1507   1.082   1_455  S
C1508      C1513   1.419       .  A
C1509      C1510   1.431       .  A
C1509      H1514   1.082       .  S
C1510      C1511   1.392       .  A
C1511      H1515   1.073       .  S
C1512      C1520   1.531       .  S
C1512      C1513   1.406       .  A
C1513      H1516   1.072       .  S
C1517      C1518   1.403       .  A
C1518      C1519   1.393       .  A
C1518      C1523   1.452       .  S
C1519      C1526   1.446       .  S
C1520      C1521   1.425       .  A
C1521      C1522   1.418       .  A
C1521      C1524   1.449       .  S
C1522      C1525   1.445       .  S
C1523      N1530   1.157       .  T
C1524      N1529   1.158       .  T
C1525      N1527   1.154       .  T
C1526      N1528   1.155       .  T
C1531      C1536   1.418       .  A
C1532      C1533   1.390       .  A
C1532      C1537   1.448       .  S
C1533      C1540   1.454       .  S
C1534      C1535   1.408       .  A
C1535      C1536   1.417       .  A
C1535      C1538   1.447       .  S
C1536      C1539   1.449       .  S
C1537      N1544   1.158       .  T
C1538      N1543   1.157       .  T
C1539      N1541   1.157       .  T
C1540      N1542   1.157       .  T
C1545      C1546   1.393       .  A
C1545      C1550   1.402       .  A
C1546      C1547   1.404       .  A
C1546      C1551   1.451       .  S
C1547      C1548   1.424       .  A
C1547      C1554   1.438       .  S
C1548      C1549   1.407       .  A
C1549      C1550   1.394       .  A
C1549      C1552   1.446       .  S
C1550      C1553   1.438       .  S
C1551      N1558   1.157       .  T
C1552      N1557   1.157       .  T
C1553      N1555   1.150       .  T
C1554      N1556   1.152   1_565  T
C1559      C1564   1.412   1_554  A
C1560      C1561   1.409       .  A
C1560      C1565   1.450       .  S
C1561      C1568   1.449       .  S
C1562      C1563   1.408   1_554  A
C1563      C1564   1.395       .  A
C1563      C1566   1.445       .  S
C1564      C1567   1.457       .  S
C1565      N1572   1.157       .  T
C1566      N1571   1.154       .  T
C1567      N1569   1.157       .  T
C1568      N1570   1.157       .  T
C1573      C1578   1.414       .  A
C1574      C1575   1.400       .  A
C1574      C1579   1.461       .  S
C1575      C1582   1.436       .  S
C1576      C1577   1.419       .  A
C1577      C1578   1.412       .  A
C1577      C1580   1.451   1_554  S
C1578      C1581   1.447       .  S
C1579      N1586   1.157       .  T
C1580      N1585   1.157       .  T
C1581      N1583   1.158       .  T
C1582      N1584   1.151       .  T
C1587      C1588   1.416       .  A
C1588      C1589   1.387       .  A
C1588      C1593   1.452   1_554  S
C1589      C1590   1.404       .  A
C1589      C1596   1.453   1_554  S
C1591      C1592   1.413       .  A
C1591      C1594   1.447       .  S
C1592      C1595   1.449       .  S
C1593      N1600   1.157       .  T
C1594      N1599   1.157       .  T
C1595      N1597   1.157       .  T
C1596      N1598   1.156       .  T
