geometry optimzed in LAMMPS
_audit_creation_date              2020-11-30 
_audit_creation_method            'lammps2cif' 
_symmetry_space_group_name_H-M    'P1' 
_symmetry_Int_Tables_number       1 
_symmetry_cell_setting            triclinic 
loop_ 
_symmetry_equiv_pos_as_xyz 
  x,y,z 
_cell_length_a                    24.57984992 
_cell_length_b                    24.56887188230734 
_cell_length_c                    28.07665443623577 
_cell_angle_alpha                 89.99954363481721 
_cell_angle_beta                  90.00111799263262 
_cell_angle_gamma                 89.9981864598376 
loop_ 
_atom_site_label 
_atom_site_type_symbol 
_atom_site_fract_x 
_atom_site_fract_y 
_atom_site_fract_z 
_atom_site_charge 
N1          N  0.15661715  0.02578382  0.31540693    -0.00900
C2          C  0.13492901  0.00078661  0.35400037     0.01700
C3          C  0.09522803  0.96440725  0.34058829    -0.21200
C4          C  0.08964607  0.47004226  0.28926139    -0.21400
C5          C  0.13001771  0.00465189  0.27730007     0.01600
H6          H  0.06786885  0.44104918  0.36073164     0.15400
H7          H  0.06333582  0.44713177  0.26593576     0.15400
O8          O  0.21652503  0.19483730  0.27634573    -0.69200
O9          O  0.32658270  0.08550263  0.27598061    -0.69400
O10         O  0.21703246  0.08532933  0.27641864    -0.69200
O11         O  0.32583681  0.19498684  0.27523802    -0.69200
O12         O  0.32702780  0.19579912  0.35253557    -0.69200
O13         O  0.21754349  0.08580380  0.35372676    -0.69200
O14         O  0.32711736  0.08622772  0.35328764    -0.69200
O15         O  0.21752293  0.19519944  0.35364904    -0.65400
V16         V  0.27152264  0.14016234  0.27751026     1.35200
V17         V  0.27229052  0.14070147  0.35180005     1.35200
C18         C  0.19836209  0.21377901  0.31517192     0.80100
C19         C  0.34567045  0.06724887  0.31471325     0.80100
C20         C  0.19847833  0.06695056  0.31518757     0.80000
C21         C  0.34499376  0.21425803  0.31346448     0.80000
N22         N  0.38735489  0.02587993  0.31505715    -0.00900
C23         C  0.40826896  0.00011744  0.35363872     0.01700
C24         C  0.44735665  0.96302156  0.34019113    -0.21200
C25         C  0.44706265  0.47020277  0.28895428    -0.21400
C26         C  0.41378412  0.00445444  0.27707584     0.01600
H27         H  0.46828621  0.44155796  0.36079998     0.15400
H28         H  0.47470043  0.44835737  0.26600235     0.15400
N29         N  0.15746237  0.25589515  0.31565037    -0.00900
C30         C  0.13233121  0.27846838  0.27748195     0.01700
C31         C  0.09804690  0.31976383  0.29155928    -0.21200
C32         C  0.10131168  0.32232339  0.34033241    -0.21400
C33         C  0.13798929  0.28300214  0.35414307     0.01600
H34         H  0.07306006  0.34468280  0.26867969     0.15400
H35         H  0.08028302  0.35038022  0.36345427     0.15400
N36         N  0.38601604  0.25624632  0.31220176    -0.00900
C37         C  0.40947679  0.27788356  0.27276206     0.01700
C38         C  0.44511528  0.31877253  0.28489755    -0.21200
C39         C  0.44413116  0.32235286  0.33365821    -0.21400
C40         C  0.40752908  0.28394848  0.34951135     0.01600
H41         H  0.46919020  0.34300241  0.26070417     0.15400
H42         H  0.46628742  0.35087156  0.35543972     0.15400
N43         N  0.15292413  0.50952846  0.18912766    -0.00900
C44         C  0.12939550  0.02738126  0.22894486     0.01700
C45         C  0.08931435  0.06287322  0.21434606    -0.21200
C46         C  0.09268918  0.06597965  0.16561291    -0.21400
C47         C  0.13519326  0.03279504  0.15236017     0.01600
H48         H  0.06001845  0.08295730  0.23691417     0.15400
H49         H  0.06722659  0.08983489  0.14222022     0.15400
O50         O  0.21235906  0.33932895  0.14997380    -0.69200
O51         O  0.32215230  0.44896013  0.14947285    -0.69400
O52         O  0.32189159  0.33950763  0.14890628    -0.69200
O53         O  0.21252929  0.44897612  0.15013162    -0.69200
O54         O  0.21325601  0.44881361  0.22743599    -0.69200
O55         O  0.32300612  0.33917177  0.22620616    -0.69200
O56         O  0.32279503  0.44869782  0.22677906    -0.69200
O57         O  0.21369552  0.33930838  0.22727143    -0.69400
V58         V  0.26725192  0.39422278  0.15111306     1.35200
V59         V  0.26815033  0.39401390  0.22539960     1.35200
C60         C  0.19445713  0.32046542  0.18890453     0.80100
C61         C  0.34126166  0.46747026  0.18810913     0.80100
C62         C  0.34106613  0.32051234  0.18725943     0.80000
C63         C  0.19416359  0.46764429  0.18891904     0.80000
N64         N  0.38282502  0.50894335  0.18813008    -0.00900
C65         C  0.40412407  0.53472321  0.14973079     0.01700
C66         C  0.45026426  0.06792378  0.16641229    -0.21200
C67         C  0.45247943  0.06514504  0.21516404    -0.21400
C68         C  0.41458323  0.02702950  0.22883674     0.01600
H69         H  0.47413647  0.09404914  0.14366020     0.15400
H70         H  0.47928019  0.08759095  0.23839677     0.15400
N71         N  0.15371117  0.27820658  0.18986667    -0.00900
C72         C  0.13315877  0.24991291  0.15250662     0.01700
C73         C  0.09803620  0.21009601  0.16827313    -0.21200
C74         C  0.09681477  0.21354499  0.21702394    -0.21400
C75         C  0.13087178  0.25574917  0.22920748     0.01600
H76         H  0.07717882  0.18066726  0.14641180     0.15400
H77         H  0.07365620  0.18829309  0.24113187     0.15400
N78         N  0.38182540  0.27823061  0.18649361    -0.00900
C79         C  0.40718911  0.25528956  0.22441697     0.01700
C80         C  0.44139607  0.21411887  0.20982199    -0.21200
C81         C  0.43773580  0.21194174  0.16105928    -0.21400
C82         C  0.40102428  0.25142388  0.14775321     0.01600
H83         H  0.46667489  0.18906497  0.23233109     0.15400
H84         H  0.45858887  0.18411452  0.13758429     0.15400
O85         O  0.46190755  0.33802735  0.10094347    -0.69200
O86         O  0.07594696  0.44782555  0.10392723    -0.69400
O87         O  0.46297085  0.44763342  0.10172292    -0.69200
O88         O  0.07679943  0.33816381  0.10447468    -0.69200
O89         O  0.07651204  0.33756478  0.02717038    -0.69200
O90         O  0.46370394  0.44841374  0.02441944    -0.69200
O91         O  0.07590906  0.44720327  0.02662405    -0.69200
O92         O  0.46259608  0.33876715  0.02364264    -0.69400
V93         V  0.02161589  0.39254014  0.10269135     1.35200
V94         V  0.02150995  0.39208507  0.02840418     1.35200
C95         C  0.44331320  0.31987726  0.06205729     0.80100
C96         C  0.09440939  0.46650026  0.06515085     0.80100
C97         C  0.44485217  0.46699175  0.06307986     0.80000
C98         C  0.09530188  0.31905221  0.06588855     0.80000
N99         N  0.13511862  0.50888217  0.06480733    -0.00900
C100        C  0.15525511  0.53647782  0.10274075     0.01700
C101        C  0.20216834  0.06528574  0.09220159    -0.21200
C102        C  0.20641133  0.06304655  0.04353531    -0.21400
C103        C  0.16524949  0.02954039  0.02760903     0.01600
H104        H  0.22820153  0.08753512  0.11634387     0.15400
H105        H  0.23727635  0.08204710  0.02189217     0.15400
N106        N  0.13591344  0.27659648  0.06595286    -0.00900
C107        C  0.15536947  0.24880372  0.10406287     0.01700
C108        C  0.19014549  0.20807777  0.08955745    -0.21200
C109        C  0.19250529  0.21057534  0.04080924    -0.21400
C110        C  0.15933281  0.25303320  0.02736693     0.01600
H111        H  0.21018643  0.17885522  0.11223676     0.15400
H112        H  0.21605150  0.18464514  0.01756464     0.15400
N113        N  0.40360580  0.50882742  0.06304906    -0.00900
C114        C  0.38827488  0.03276222  0.10369597     0.01700
C115        C  0.35375221  0.07366305  0.08903772    -0.21200
C116        C  0.35143325  0.07100764  0.04022764    -0.21400
C117        C  0.38424769  0.02820341  0.02691363     0.01600
H118        H  0.33403647  0.10322203  0.11162603     0.15400
H119        H  0.32822642  0.09710558  0.01684028     0.15400
N120        N  0.40091512  0.27920402  0.06151277    -0.00900
C121        C  0.37828299  0.25362480  0.09948533     0.01700
C122        C  0.33742668  0.21896011  0.08497244    -0.21200
C123        C  0.33492393  0.22278381  0.03626728    -0.21400
C124        C  0.37409695  0.25979827  0.02291021     0.01600
H125        H  0.31278827  0.19319156  0.10746234     0.15400
H126        H  0.30705929  0.20182701  0.01289234     0.15400
O127        O  0.46432448  0.19911671  0.47632151    -0.69200
O128        O  0.07583337  0.08732010  0.47896676    -0.69400
O129        O  0.07694225  0.19692624  0.47922341    -0.69200
O130        O  0.46543507  0.08951811  0.47760635    -0.69200
O131        O  0.46560221  0.08836556  0.40030594    -0.69200
O132        O  0.07717371  0.19732963  0.40191782    -0.69200
O133        O  0.07625901  0.08775774  0.40166049    -0.69200
O134        O  0.46458293  0.19790477  0.39902134    -0.69400
V135        V  0.02165552  0.14256249  0.47747039     1.35200
V136        V  0.02195922  0.14315210  0.40318373     1.35200
C137        C  0.44569371  0.21720217  0.43735708     0.80100
C138        C  0.09455846  0.06858752  0.44035702     0.80100
C139        C  0.09600695  0.21562514  0.44063139     0.80000
C140        C  0.44704082  0.06997764  0.43918296     0.80000
N141        N  0.13833451  0.25635299  0.44074306    -0.00900
C142        C  0.16072165  0.28162216  0.40248459     0.01700
C143        C  0.20123639  0.31685901  0.41666911    -0.21200
C144        C  0.20379235  0.31366070  0.46542854    -0.21400
C145        C  0.16497644  0.27643840  0.47917442     0.01600
H146        H  0.22565506  0.34251419  0.39390440     0.15400
H147        H  0.23157686  0.33506285  0.48856510     0.15400
N148        N  0.13578945  0.02671685  0.44051323    -0.00900
C149        C  0.15759280  0.00118721  0.40220491     0.01700
C150        C  0.19709154  0.96476518  0.41607893    -0.21200
C151        C  0.18884761  0.46557366  0.46486730    -0.21400
C152        C  0.16178232  0.00542613  0.47885220     0.01600
H153        H  0.20667195  0.43307943  0.39368847     0.15400
H154        H  0.21174416  0.43948352  0.48847223     0.15400
N155        N  0.40613204  0.02783347  0.43976386    -0.00900
C156        C  0.38542337  0.00071987  0.40183005     0.01700
C157        C  0.34737997  0.96306113  0.41630578    -0.21200
C158        C  0.33308772  0.47187446  0.46062313    -0.21400
C159        C  0.38084006  0.00646631  0.47842804     0.01600
H160        H  0.31185835  0.44635615  0.38797892     0.15400
H161        H  0.30268741  0.45237131  0.48239176     0.15400
N162        N  0.40480231  0.25937258  0.43659595    -0.00900
C163        C  0.38523291  0.28609641  0.39793751     0.01700
C164        C  0.34977445  0.32660178  0.41160355    -0.21200
C165        C  0.34702993  0.32496520  0.46038307    -0.21400
C166        C  0.38069706  0.28325863  0.47469127     0.01600
H167        H  0.32934443  0.35497192  0.38834033     0.15400
H168        H  0.32265595  0.35073394  0.48307203     0.15400
N169        N  0.15960368  0.02449412  0.81561009    -0.00900
C170        C  0.13827926  0.99988489  0.85457184     0.01700
C171        C  0.09778172  0.96408333  0.84194659    -0.21200
C172        C  0.09371030  0.46633129  0.78987974    -0.21400
C173        C  0.13227964  0.00321460  0.77791847     0.01600
H174        H  0.07582647  0.43457141  0.86129457     0.15400
H175        H  0.06899823  0.44159017  0.76662749     0.15400
O176        O  0.21698592  0.19470659  0.77610362    -0.69200
O177        O  0.32843705  0.08692855  0.77623196    -0.69400
O178        O  0.21894685  0.08511609  0.77632290    -0.69200
O179        O  0.32636690  0.19650981  0.77514730    -0.69200
O180        O  0.32704945  0.19746516  0.85244694    -0.69200
O181        O  0.21959240  0.08565574  0.85362420    -0.69200
O182        O  0.32909470  0.08784535  0.85353447    -0.69200
O183        O  0.21757025  0.19506302  0.85340823    -0.65400
V184        V  0.27273662  0.14082988  0.77746034     1.35200
V185        V  0.27333262  0.14148437  0.85174622     1.35200
C186        C  0.19820354  0.21324213  0.81485446     0.80100
C187        C  0.34766931  0.06884797  0.81498625     0.80100
C188        C  0.20080414  0.06638890  0.81513105     0.80000
C189        C  0.34492415  0.21620482  0.81344275     0.80000
N190        N  0.38903587  0.02715093  0.81516320    -0.00900
C191        C  0.40929580  0.99993460  0.85329843     0.01700
C192        C  0.44533480  0.96032080  0.83872251    -0.21200
C193        C  0.44702380  0.47331251  0.78762681    -0.21400
C194        C  0.41314078  0.00436375  0.77659635     0.01600
H195        H  0.47059734  0.44555719  0.85911816     0.15400
H196        H  0.47403263  0.45138266  0.76418236     0.15400
N197        N  0.15599874  0.25407648  0.81511666    -0.00900
C198        C  0.13051687  0.27584890  0.77675856     0.01700
C199        C  0.09335922  0.31458442  0.79073952    -0.21200
C200        C  0.09538812  0.31657460  0.83957567    -0.21400
C201        C  0.13413245  0.27935814  0.85360010     0.01600
H202        H  0.06722274  0.33802816  0.76768017     0.15400
H203        H  0.07209940  0.34294535  0.86258543     0.15400
N204        N  0.38512208  0.25902694  0.81254730    -0.00900
C205        C  0.40933861  0.28105483  0.77363652     0.01700
C206        C  0.44425732  0.32231043  0.78661306    -0.21200
C207        C  0.44192163  0.32579213  0.83535377    -0.21400
C208        C  0.40533688  0.28690368  0.85026299     0.01600
H209        H  0.46893040  0.34673889  0.76302819     0.15400
H210        H  0.46335733  0.35433601  0.85770386     0.15400
N211        N  0.15054589  0.50808838  0.68918171    -0.00900
C212        C  0.13083489  0.02545864  0.72937489     0.01700
C213        C  0.09079481  0.06125325  0.71528483    -0.21200
C214        C  0.09256591  0.06336381  0.66645022    -0.21400
C215        C  0.13387499  0.02903443  0.65249420     0.01600
H216        H  0.06260584  0.08227996  0.73828430     0.15400
H217        H  0.06711877  0.08770506  0.64344356     0.15400
O218        O  0.21259037  0.33822466  0.65023540    -0.69200
O219        O  0.31987747  0.45016330  0.64962538    -0.69400
O220        O  0.32207900  0.34080026  0.64919504    -0.69200
O221        O  0.21035943  0.44786836  0.65000402    -0.69200
O222        O  0.21142623  0.44805722  0.72730551    -0.69200
O223        O  0.32272801  0.34033266  0.72650211    -0.69200
O224        O  0.32089879  0.44986732  0.72692420    -0.69200
O225        O  0.21332074  0.33849016  0.72753809    -0.69400
V226        V  0.26623173  0.39427220  0.65127197     1.35200
V227        V  0.26703724  0.39419911  0.72555906     1.35200
C228        C  0.19475281  0.31909781  0.68910453     0.80100
C229        C  0.33883824  0.46902175  0.68818767     0.80100
C230        C  0.34143066  0.32218289  0.68760896     0.80000
C231        C  0.19194920  0.46644919  0.68877369     0.80000
N232        N  0.37973331  0.51120241  0.68787584    -0.00900
C233        C  0.40022507  0.53697605  0.64914925     0.01700
C234        C  0.44616628  0.07063136  0.66620109    -0.21200
C235        C  0.44922927  0.06713194  0.71488696    -0.21400
C236        C  0.41339474  0.02694814  0.72835630     0.01600
H237        H  0.46841668  0.09827594  0.64355552     0.15400
H238        H  0.47509412  0.09065362  0.73813833     0.15400
N239        N  0.15478862  0.27599947  0.68967358    -0.00900
C240        C  0.13531432  0.24776065  0.65185813     0.01700
C241        C  0.09958162  0.20798707  0.66655007    -0.21200
C242        C  0.09682211  0.21137164  0.71524457    -0.21400
C243        C  0.13074779  0.25338242  0.72840554     0.01600
H244        H  0.07898713  0.17894189  0.64405646     0.15400
H245        H  0.07247419  0.18638545  0.73865041     0.15400
N246        N  0.38327350  0.28101617  0.68703738    -0.00900
C247        C  0.40859465  0.25861302  0.72521907     0.01700
C248        C  0.44452609  0.21883773  0.71092547    -0.21200
C249        C  0.44189937  0.21691415  0.66210197    -0.21400
C250        C  0.40410999  0.25523042  0.64839686     0.01600
H251        H  0.47024303  0.19457329  0.73370359     0.15400
H252        H  0.46414267  0.18990216  0.63886868     0.15400
O253        O  0.46284250  0.34335532  0.60143407    -0.69200
O254        O  0.07637313  0.44462671  0.60448461    -0.69400
O255        O  0.46296390  0.45289795  0.60152075    -0.69200
O256        O  0.07737952  0.33488332  0.60420928    -0.69200
O257        O  0.07734479  0.33486705  0.52690334    -0.69200
O258        O  0.46376225  0.45319446  0.52422142    -0.69200
O259        O  0.07620292  0.44447392  0.52718484    -0.69200
O260        O  0.46372097  0.34366167  0.52413138    -0.69400
V261        V  0.02211327  0.38922575  0.60276400     1.35200
V262        V  0.02208687  0.38922444  0.52847749     1.35200
C263        C  0.44463775  0.32471111  0.56258718     0.80100
C264        C  0.09449374  0.46378858  0.56577987     0.80100
C265        C  0.44432701  0.47148919  0.56275384     0.80000
C266        C  0.09626750  0.31629318  0.56554775     0.80000
N267        N  0.13400759  0.50726423  0.56537915    -0.00900
C268        C  0.15250867  0.53665222  0.60297429     0.01700
C269        C  0.19718693  0.06541048  0.59126815    -0.21200
C270        C  0.20019431  0.06394511  0.54248976    -0.21400
C271        C  0.16128510  0.02748615  0.52734841     0.01600
H272        H  0.22167613  0.08980606  0.61500948     0.15400
H273        H  0.22852143  0.08580570  0.52025517     0.15400
N274        N  0.13793367  0.27481899  0.56554984    -0.00900
C275        C  0.15821738  0.24781425  0.60373622     0.01700
C276        C  0.19626110  0.20989650  0.58974715    -0.21200
C277        C  0.19973752  0.21328617  0.54111209    -0.21400
C278        C  0.16398487  0.25344606  0.52728809     0.01600
H279        H  0.21815181  0.18222060  0.61261281     0.15400
H280        H  0.22581664  0.18959158  0.51815226     0.15400
N281        N  0.40124411  0.51148036  0.56250828    -0.00900
C282        C  0.38537863  0.03327256  0.60353866     0.01700
C283        C  0.34797092  0.07177645  0.58939965    -0.21200
C284        C  0.34551760  0.06933003  0.54058703    -0.21400
C285        C  0.38125147  0.02914327  0.52675330     0.01600
H286        H  0.32594649  0.09931277  0.61231156     0.15400
H287        H  0.32007679  0.09357539  0.51751895     0.15400
N288        N  0.40334958  0.28294620  0.56204715    -0.00900
C289        C  0.38169522  0.25633505  0.59993059     0.01700
C290        C  0.34393347  0.21854688  0.58496517    -0.21200
C291        C  0.34242486  0.22144158  0.53616209    -0.21400
C292        C  0.37892405  0.26120451  0.52315748     0.01600
H293        H  0.32114869  0.19101569  0.60727487     0.15400
H294        H  0.31721815  0.19773908  0.51247114     0.15400
O295        O  0.46277430  0.20165684  0.97652295    -0.69200
O296        O  0.07482505  0.08293930  0.97952438    -0.69400
O297        O  0.07527408  0.19242566  0.97899610    -0.69200
O298        O  0.46391493  0.09205203  0.97703688    -0.69200
O299        O  0.46400322  0.09130077  0.89974179    -0.69200
O300        O  0.07553063  0.19239816  0.90168925    -0.69200
O301        O  0.07538165  0.08296373  0.90222144    -0.69200
O302        O  0.46324223  0.20101599  0.89921670    -0.69400
V303        V  0.02027168  0.13781421  0.97752909     1.35200
V304        V  0.02065441  0.13788261  0.90324170     1.35200
C305        C  0.44417892  0.21995793  0.93763541     0.80100
C306        C  0.09414697  0.06454260  0.94103119     0.80100
C307        C  0.09409757  0.21115749  0.94033161     0.80000
C308        C  0.44567147  0.07249821  0.93854844     0.80000
N309        N  0.13535905  0.25295003  0.94033279    -0.00900
C310        C  0.15650392  0.27934414  0.90210654     0.01700
C311        C  0.19397949  0.31765927  0.91654448    -0.21200
C312        C  0.19590588  0.31526376  0.96537162    -0.21400
C313        C  0.15997060  0.27520031  0.97890799     0.01600
H314        H  0.21641116  0.34505477  0.89382909     0.15400
H315        H  0.22112933  0.33937554  0.98870231     0.15400
N316        N  0.13726978  0.02463990  0.94131663    -0.00900
C317        C  0.16096862  0.00136294  0.90276672     0.01700
C318        C  0.20458314  0.96964997  0.91601896    -0.21200
C319        C  0.19582735  0.46759808  0.96464151    -0.21400
C320        C  0.16619745  0.00661214  0.97934424     0.01600
H321        H  0.21557914  0.43674312  0.89329004     0.15400
H322        H  0.22105554  0.44354775  0.98803643     0.15400
N323        N  0.40587358  0.02925754  0.93922131    -0.00900
C324        C  0.38683040  0.00008090  0.90171820     0.01700
C325        C  0.35345019  0.95866419  0.91730527    -0.21200
C326        C  0.34015343  0.47059927  0.96123206    -0.21400
C327        C  0.38370274  0.00577293  0.97845108     0.01600
H328        H  0.31921313  0.44404204  0.88880123     0.15400
H329        H  0.31236692  0.44817307  0.98354201     0.15400
N330        N  0.40258565  0.26144222  0.93700985    -0.00900
C331        C  0.38231364  0.28761864  0.89837981     0.01700
C332        C  0.34332369  0.32489628  0.91164090    -0.21200
C333        C  0.33938030  0.32203779  0.96029101    -0.21400
C334        C  0.37577485  0.28279821  0.97484035     0.01600
H335        H  0.32089299  0.35160842  0.88827630     0.15400
H336        H  0.31239134  0.34525647  0.98277269     0.15400
N337        N  0.15224495  0.53024485  0.31433065    -0.00900
C338        C  0.13026715  0.50445357  0.35252808     0.01700
C339        C  0.09148208  0.46749653  0.33805039    -0.21200
C340        C  0.09227768  0.96664302  0.29182551    -0.21400
C341        C  0.12703736  0.50874021  0.27574588     0.01600
H342        H  0.07177446  0.93862971  0.36396581     0.15400
H343        H  0.06504685  0.94385165  0.26922784     0.15400
O344        O  0.21433787  0.69981075  0.27528420    -0.69200
O345        O  0.32221863  0.58900301  0.27515447    -0.69400
O346        O  0.21287948  0.59018077  0.27559234    -0.69200
O347        O  0.32394078  0.69853916  0.27574222    -0.69200
O348        O  0.32363433  0.69788700  0.35304788    -0.69200
O349        O  0.21276206  0.59016000  0.35290107    -0.69200
O350        O  0.32221557  0.58855322  0.35246283    -0.69200
O351        O  0.21410851  0.69978846  0.35259192    -0.65400
V352        V  0.26830694  0.64438906  0.27694622     1.35200
V353        V  0.26817019  0.64413552  0.35123773     1.35200
C354        C  0.19573015  0.71876791  0.31383828     0.80100
C355        C  0.34070676  0.56984752  0.31366580     0.80100
C356        C  0.19398885  0.57155941  0.31429243     0.80000
C357        C  0.34290706  0.71652357  0.31463201     0.80000
N358        N  0.38205456  0.52817076  0.31330657    -0.00900
C359        C  0.40374664  0.50250353  0.35159734     0.01700
C360        C  0.44413871  0.46708357  0.33773194    -0.21200
C361        C  0.45064319  0.96559402  0.29147191    -0.21400
C362        C  0.40883386  0.50795183  0.27492177     0.01600
H363        H  0.47022856  0.93655598  0.36344958     0.15400
H364        H  0.47747942  0.94247320  0.26878670     0.15400
N365        N  0.15437526  0.76051227  0.31357382    -0.00900
C366        C  0.12751181  0.78091955  0.27532516     0.01700
C367        C  0.08914140  0.81847395  0.28944670    -0.21200
C368        C  0.09214992  0.82150718  0.33815000    -0.21400
C369        C  0.13259670  0.78607375  0.35185698     0.01600
H370        H  0.06132639  0.84023669  0.26662232     0.15400
H371        H  0.06801044  0.84699533  0.36123131     0.15400
N372        N  0.38527670  0.75718021  0.31539356    -0.00900
C373        C  0.41177430  0.77897179  0.27756847     0.01700
C374        C  0.44928902  0.81695727  0.29247106    -0.21200
C375        C  0.44647256  0.81841859  0.34126694    -0.21400
C376        C  0.40705177  0.78152841  0.35436459     0.01600
H377        H  0.47631109  0.84017263  0.27004552     0.15400
H378        H  0.46981625  0.84407969  0.36484324     0.15400
N379        N  0.15768586  0.00838607  0.19092958    -0.00900
C380        C  0.12770562  0.53146504  0.22755070     0.01700
C381        C  0.09241407  0.57211165  0.21395068    -0.21200
C382        C  0.09531042  0.57521751  0.16525472    -0.21400
C383        C  0.13257950  0.53664042  0.15099895     0.01600
H384        H  0.06701532  0.59626662  0.23711575     0.15400
H385        H  0.07363963  0.60324221  0.14252688     0.15400
O386        O  0.21657860  0.83923625  0.15139714    -0.69200
O387        O  0.32769505  0.94672472  0.15176815    -0.69400
O388        O  0.32608012  0.83711342  0.15181972    -0.69200
O389        O  0.21825569  0.94857684  0.15205606    -0.69200
O390        O  0.21807262  0.94816708  0.22936026    -0.69200
O391        O  0.32574968  0.83702845  0.22912585    -0.69200
O392        O  0.32752179  0.94664560  0.22907878    -0.69200
O393        O  0.21621647  0.83857191  0.22870067    -0.69400
V394        V  0.27215375  0.89290048  0.15328045     1.35200
V395        V  0.27192777  0.89260790  0.22757029     1.35200
C396        C  0.19730596  0.82056219  0.18980670     0.80100
C397        C  0.34655194  0.96517479  0.19040788     0.80100
C398        C  0.34438032  0.81806807  0.19055932     0.80000
C399        C  0.19959930  0.96724750  0.19079690     0.80000
N400        N  0.38864873  0.00611507  0.19037930    -0.00900
C401        C  0.41074195  0.03167599  0.15212774     0.01700
C402        C  0.44244459  0.57236087  0.16364928    -0.21200
C403        C  0.44499373  0.57001444  0.21245385    -0.21400
C404        C  0.40836508  0.53071306  0.22653195     0.01600
H405        H  0.46508757  0.59921108  0.14057857     0.15400
H406        H  0.47118943  0.59367112  0.23533093     0.15400
N407        N  0.15483694  0.78000379  0.18906099    -0.00900
C408        C  0.13242044  0.75632506  0.15004492     0.01700
C409        C  0.09197211  0.72051750  0.16308449    -0.21200
C410        C  0.08933826  0.72184168  0.21190707    -0.21400
C411        C  0.12800846  0.75862635  0.22689285     0.01600
H412        H  0.06770904  0.69571791  0.13947631     0.15400
H413        H  0.06152023  0.69953872  0.23430984     0.15400
N414        N  0.38585077  0.77642608  0.19085598    -0.00900
C415        C  0.41288988  0.75653962  0.22920450     0.01700
C416        C  0.45187144  0.71952074  0.21529028    -0.21200
C417        C  0.44896100  0.71615736  0.16659000    -0.21400
C418        C  0.40799793  0.75093328  0.15266625     0.01600
H419        H  0.48004610  0.69837440  0.23825101     0.15400
H420        H  0.47353640  0.69084973  0.14367638     0.15400
O421        O  0.46773081  0.83416639  0.10399299    -0.69200
O422        O  0.07263313  0.95245465  0.10232081    -0.69400
O423        O  0.46689246  0.94356998  0.10435577    -0.69200
O424        O  0.07237273  0.84300366  0.10212093    -0.69200
O425        O  0.07303385  0.84349372  0.02481992    -0.69200
O426        O  0.46696138  0.94360523  0.02705415    -0.69200
O427        O  0.07354694  0.95303276  0.02502803    -0.69200
O428        O  0.46764191  0.83407884  0.02668795    -0.69400
V429        V  0.01772220  0.89802018  0.10034255     1.35200
V430        V  0.01848472  0.89838455  0.02605982     1.35200
C431        C  0.44885485  0.81551031  0.06534561     0.80100
C432        C  0.09220741  0.97107690  0.06395275     0.80100
C433        C  0.44823900  0.96236090  0.06570334     0.80000
C434        C  0.09134121  0.82442391  0.06349071     0.80000
N435        N  0.13534518  0.01095351  0.06483994    -0.00900
C436        C  0.15814710  0.03349073  0.10416892     0.01700
C437        C  0.19223248  0.57517229  0.08819260    -0.21200
C438        C  0.19499799  0.57182082  0.03948354    -0.21400
C439        C  0.15993959  0.53082750  0.02617978     0.01600
H440        H  0.21386132  0.60333834  0.11079569     0.15400
H441        H  0.22019206  0.59601741  0.01616476     0.15400
N442        N  0.13287001  0.78286423  0.06338767    -0.00900
C443        C  0.15489011  0.75719985  0.10160630     0.01700
C444        C  0.19432530  0.72086359  0.08730070    -0.21200
C445        C  0.19640430  0.72351993  0.03849194    -0.21400
C446        C  0.15863829  0.76182354  0.02482553     0.01600
H447        H  0.21813787  0.69470404  0.11008166     0.15400
H448        H  0.22301119  0.70085608  0.01523195     0.15400
N449        N  0.40757571  0.00476874  0.06562144    -0.00900
C450        C  0.38164542  0.53425822  0.10137959     0.01700
C451        C  0.34202478  0.57053574  0.08740668    -0.21200
C452        C  0.33962874  0.56799311  0.03864606    -0.21400
C453        C  0.37760886  0.53000284  0.02469198     0.01600
H454        H  0.31817862  0.59646328  0.11035591     0.15400
H455        H  0.31254058  0.59042930  0.01564627     0.15400
N456        N  0.40690967  0.77440056  0.06558646    -0.00900
C457        C  0.38530757  0.74980258  0.10444184     0.01700
C458        C  0.34509059  0.71377912  0.09151138    -0.21200
C459        C  0.34170581  0.71584576  0.04276110    -0.21400
C460        C  0.37966631  0.75342478  0.02774770     0.01600
H461        H  0.32144591  0.68847757  0.11516508     0.15400
H462        H  0.31389624  0.69335444  0.02048536     0.15400
O463        O  0.46600687  0.69281921  0.47883116    -0.69200
O464        O  0.07318877  0.59284790  0.47729296    -0.69400
O465        O  0.07240473  0.70233019  0.47730114    -0.69200
O466        O  0.46500387  0.58325860  0.47878581    -0.69200
O467        O  0.46576882  0.58353042  0.40148784    -0.69200
O468        O  0.07279713  0.70189950  0.39999511    -0.69200
O469        O  0.07356470  0.59249290  0.39999124    -0.69200
O470        O  0.46600917  0.69300712  0.40152651    -0.69400
V471        V  0.01803841  0.64723270  0.47552129     1.35200
V472        V  0.01837508  0.64675078  0.40123476     1.35200
C473        C  0.44749332  0.71184809  0.44024837     0.80100
C474        C  0.09212348  0.57397631  0.43874084     0.80100
C475        C  0.09140404  0.72075718  0.43869741     0.80000
C476        C  0.44626412  0.56506639  0.43989884     0.80000
N477        N  0.13340443  0.76181758  0.43867769    -0.00900
C478        C  0.15529196  0.78652442  0.40002860     0.01700
C479        C  0.19602272  0.82186286  0.41316809    -0.21200
C480        C  0.19936221  0.81936886  0.46188235    -0.21400
C481        C  0.16086018  0.78222070  0.47662430     0.01600
H482        H  0.22012646  0.84691433  0.38966354     0.15400
H483        H  0.22753117  0.84121811  0.48431367     0.15400
N484        N  0.13294545  0.53175532  0.43901205    -0.00900
C485        C  0.15248543  0.50364961  0.40108168     0.01700
C486        C  0.18685931  0.46275411  0.41605259    -0.21200
C487        C  0.19955797  0.96724856  0.46482794    -0.21400
C488        C  0.15606248  0.50849804  0.47786509     0.01600
H489        H  0.22075147  0.93875569  0.39305753     0.15400
H490        H  0.22652175  0.94458164  0.48777544     0.15400
N491        N  0.40323487  0.52507341  0.43904359    -0.00900
C492        C  0.38081357  0.50190288  0.39981435     0.01700
C493        C  0.33743185  0.46932328  0.41198575    -0.21200
C494        C  0.34471279  0.96643447  0.46504230    -0.21400
C495        C  0.37358272  0.50628178  0.47631063     0.01600
H496        H  0.32492075  0.93563518  0.39365791     0.15400
H497        H  0.31886047  0.94294124  0.48834039     0.15400
N498        N  0.40638232  0.75380364  0.44068057    -0.00900
C499        C  0.38463847  0.78029279  0.40279228     0.01700
C500        C  0.34634663  0.81755422  0.41765864    -0.21200
C501        C  0.34468387  0.81460697  0.46646448    -0.21400
C502        C  0.38157343  0.77521710  0.47956227     0.01600
H503        H  0.32314021  0.84458388  0.39523087     0.15400
H504        H  0.31902119  0.83792845  0.49006431     0.15400
N505        N  0.15273923  0.53019787  0.81480701    -0.00900
C506        C  0.13328883  0.50241670  0.85295293     0.01700
C507        C  0.09681786  0.46310741  0.83859859    -0.21200
C508        C  0.09423677  0.96586110  0.79320365    -0.21400
C509        C  0.12789669  0.50792116  0.77639344     0.01600
H510        H  0.07391288  0.93933681  0.86585145     0.15400
H511        H  0.06607205  0.94355857  0.77112702     0.15400
O512        O  0.21294566  0.70082425  0.77533691    -0.69200
O513        O  0.32131063  0.59078892  0.77515811    -0.69400
O514        O  0.21197828  0.59130454  0.77577599    -0.69200
O515        O  0.32253110  0.70031272  0.77548660    -0.69200
O516        O  0.32196065  0.70012448  0.85278721    -0.69200
O517        O  0.21244902  0.59111109  0.85308288    -0.69200
O518        O  0.32197990  0.59075198  0.85246445    -0.69200
O519        O  0.21244438  0.70069769  0.85264956    -0.65400
V520        V  0.26714612  0.64581843  0.77694675     1.35200
V521        V  0.26719111  0.64570923  0.85123909     1.35200
C522        C  0.19402822  0.71950731  0.81386005     0.80100
C523        C  0.34037619  0.57207875  0.81361682     0.80100
C524        C  0.19358434  0.57239700  0.81455265     0.80000
C525        C  0.34127302  0.71864516  0.81433289     0.80000
N526        N  0.38233894  0.53102676  0.81299953    -0.00900
C527        C  0.40566976  0.50634017  0.85106250     0.01700
C528        C  0.44578772  0.47093248  0.83648403    -0.21200
C529        C  0.44758927  0.96295312  0.78996964    -0.21400
C530        C  0.40794918  0.51041450  0.77417295     0.01600
H531        H  0.46635048  0.93172792  0.86132676     0.15400
H532        H  0.47184159  0.93782922  0.76663882     0.15400
N533        N  0.15236885  0.76085236  0.81337823    -0.00900
C534        C  0.12622342  0.78122066  0.77473758     0.01700
C535        C  0.08811787  0.81926242  0.78827210    -0.21200
C536        C  0.09049187  0.82252973  0.83698924    -0.21400
C537        C  0.13025922  0.78668511  0.85139151     0.01600
H538        H  0.06104471  0.84136583  0.76501854     0.15400
H539        H  0.06650857  0.84859760  0.85965464     0.15400
N540        N  0.38390753  0.75905947  0.81513812    -0.00900
C541        C  0.41300020  0.77855510  0.77779833     0.01700
C542        C  0.45270629  0.81390213  0.79340749    -0.21200
C543        C  0.44851689  0.81622005  0.84209254    -0.21400
C544        C  0.40590701  0.78269170  0.85435122     0.01600
H545        H  0.48244490  0.83427977  0.77153688     0.15400
H546        H  0.47360195  0.83967462  0.86610295     0.15400
N547        N  0.15741406  0.00518889  0.69087903    -0.00900
C548        C  0.12725426  0.53070321  0.72820494     0.01700
C549        C  0.09353091  0.57300789  0.71564939    -0.21200
C550        C  0.09520758  0.57623951  0.66690378    -0.21400
C551        C  0.13029231  0.53614822  0.65150703     0.01600
H552        H  0.07037787  0.59853010  0.73952135     0.15400
H553        H  0.07470897  0.60575436  0.64485575     0.15400
O554        O  0.21798457  0.83619087  0.65126766    -0.69200
O555        O  0.32767468  0.94518496  0.65134730    -0.69400
O556        O  0.32754104  0.83550374  0.65159249    -0.69200
O557        O  0.21811046  0.94557579  0.65172022    -0.69200
O558        O  0.21847074  0.94553490  0.72902585    -0.69200
O559        O  0.32681606  0.83528693  0.72889849    -0.69200
O560        O  0.32788708  0.94485393  0.72865403    -0.69200
O561        O  0.21731602  0.83600634  0.72856792    -0.69400
V562        V  0.27283891  0.89058385  0.65297990     1.35200
V563        V  0.27267281  0.89041124  0.72726891     1.35200
C564        C  0.19861152  0.81769905  0.68971745     0.80100
C565        C  0.34647621  0.96378474  0.68996647     0.80100
C566        C  0.34585231  0.81662605  0.69039835     0.80000
C567        C  0.19954532  0.96426031  0.69050992     0.80000
N568        N  0.38775308  0.00560008  0.68992778    -0.00900
C569        C  0.40811819  0.03284798  0.65184953     0.01700
C570        C  0.43902845  0.57443295  0.66223147    -0.21200
C571        C  0.44258670  0.57220762  0.71097667    -0.21400
C572        C  0.40620199  0.53300188  0.72577488     0.01600
H573        H  0.46153644  0.60078507  0.63862889     0.15400
H574        H  0.46943064  0.59573666  0.73335471     0.15400
N575        N  0.15584272  0.77745192  0.68900995    -0.00900
C576        C  0.13340827  0.75401542  0.64990861     0.01700
C577        C  0.09054763  0.72090566  0.66240730    -0.21200
C578        C  0.08671364  0.72327447  0.71113967    -0.21400
C579        C  0.12688466  0.75822540  0.72652063     0.01600
H580        H  0.06512596  0.69759677  0.63853885     0.15400
H581        H  0.05693030  0.70323958  0.73319568     0.15400
N582        N  0.38779595  0.77551964  0.69093389    -0.00900
C583        C  0.41432883  0.75566525  0.72957382     0.01700
C584        C  0.45387476  0.71913880  0.71596304    -0.21200
C585        C  0.45183548  0.71606723  0.66722617    -0.21400
C586        C  0.41087857  0.75059980  0.65288508     0.01600
H587        H  0.48179594  0.69810241  0.73920796     0.15400
H588        H  0.47689122  0.69098914  0.64453770     0.15400
O589        O  0.46724721  0.83735711  0.60441888    -0.69200
O590        O  0.07244298  0.94643606  0.60244190    -0.69400
O591        O  0.46643892  0.94682216  0.60397190    -0.69200
O592        O  0.07139263  0.83701433  0.60141523    -0.69200
O593        O  0.07211177  0.83778851  0.52412000    -0.69200
O594        O  0.46644387  0.94654145  0.52666561    -0.69200
O595        O  0.07320125  0.94744341  0.52514607    -0.69200
O596        O  0.46705105  0.83694504  0.52711589    -0.69400
V597        V  0.01718281  0.89228027  0.60010476     1.35200
V598        V  0.01785770  0.89307306  0.52582279     1.35200
C599        C  0.44860851  0.81821947  0.56586797     0.80100
C600        C  0.09175952  0.96547297  0.56414300     0.80100
C601        C  0.44762379  0.96529906  0.56527030     0.80000
C602        C  0.09048671  0.81868331  0.56274651     0.80000
N603        N  0.13397364  0.00635290  0.56503890    -0.00900
C604        C  0.15620941  0.03012512  0.60407377     0.01700
C605        C  0.18540678  0.57851428  0.58751646    -0.21200
C606        C  0.18747086  0.57516879  0.53877900    -0.21400
C607        C  0.15610153  0.53101202  0.52626924     0.01600
H608        H  0.20414890  0.60917871  0.60956419     0.15400
H609        H  0.20952289  0.60176365  0.51495954     0.15400
N610        N  0.13291320  0.77805268  0.56282867    -0.00900
C611        C  0.15615013  0.75467676  0.60158798     0.01700
C612        C  0.19954359  0.72251650  0.58852172    -0.21200
C613        C  0.20279848  0.72531516  0.53977860    -0.21400
C614        C  0.16161914  0.75941332  0.52492156     0.01600
H615        H  0.22572892  0.69949785  0.61198464     0.15400
H616        H  0.23295708  0.70620448  0.51739355     0.15400
N617        N  0.40618333  0.00690685  0.56521059    -0.00900
C618        C  0.37765097  0.53522185  0.60091603     0.01700
C619        C  0.33422154  0.56710573  0.58742902    -0.21200
C620        C  0.33106234  0.56354185  0.53877698    -0.21400
C621        C  0.37243366  0.52941756  0.52441693     0.01600
H622        H  0.30802682  0.59054916  0.61053817     0.15400
H623        H  0.30102269  0.58235299  0.51611013     0.15400
N624        N  0.40798786  0.77574675  0.56614340    -0.00900
C625        C  0.38844255  0.74871949  0.60459899     0.01700
C626        C  0.35211620  0.70903773  0.59090865    -0.21200
C627        C  0.34884480  0.71144319  0.54215772    -0.21400
C628        C  0.38308772  0.75280265  0.52797102     0.01600
H629        H  0.33141942  0.68077461  0.61408981     0.15400
H630        H  0.32376116  0.68637193  0.51942448     0.15400
O631        O  0.46744953  0.69774479  0.97933457    -0.69200
O632        O  0.07484522  0.59034109  0.97757593    -0.69400
O633        O  0.07383583  0.69996068  0.97687033    -0.69200
O634        O  0.46628414  0.58815018  0.97836149    -0.69200
O635        O  0.46675256  0.58906628  0.90106009    -0.69200
O636        O  0.07410100  0.69917905  0.89956717    -0.69200
O637        O  0.07511535  0.58964492  0.90027138    -0.69200
O638        O  0.46763461  0.69846142  0.90203374    -0.69400
V639        V  0.01961975  0.64470577  0.97558632     1.35200
V640        V  0.01985129  0.64378770  0.90130078     1.35200
C641        C  0.44880717  0.71681365  0.94082980     0.80100
C642        C  0.09379395  0.57136856  0.93906080     0.80100
C643        C  0.09242131  0.71857915  0.93815865     0.80000
C644        C  0.44755907  0.57011217  0.93940128     0.80000
N645        N  0.13292721  0.76114862  0.93804078    -0.00900
C646        C  0.15280778  0.78807481  0.89966281     0.01700
C647        C  0.18919665  0.82761543  0.91354387    -0.21200
C648        C  0.19208998  0.82527867  0.96231119    -0.21400
C649        C  0.15753679  0.78412712  0.97635633     0.01600
H650        H  0.21014053  0.85580827  0.89046860     0.15400
H651        H  0.21708744  0.85029299  0.98516248     0.15400
N652        N  0.13525227  0.52977333  0.93934166    -0.00900
C653        C  0.15605466  0.50285483  0.90128129     0.01700
C654        C  0.19347722  0.46455877  0.91586755    -0.21200
C655        C  0.20773252  0.97282035  0.96469941    -0.21400
C656        C  0.16012400  0.50797589  0.97798463     0.01600
H657        H  0.23089836  0.94657424  0.89272428     0.15400
H658        H  0.23793124  0.95402047  0.98720808     0.15400
N659        N  0.40540206  0.52919932  0.93853491    -0.00900
C660        C  0.38351675  0.50498271  0.89954875     0.01700
C661        C  0.34320514  0.46899932  0.91246682    -0.21200
C662        C  0.35169283  0.96203345  0.96605431    -0.21400
C663        C  0.37834228  0.50785215  0.97624830     0.01600
H664        H  0.33428879  0.92817936  0.89535473     0.15400
H665        H  0.32948254  0.93568291  0.98997150     0.15400
N666        N  0.40645217  0.75750209  0.94114638    -0.00900
C667        C  0.38320309  0.78146977  0.90268141     0.01700
C668        C  0.34033571  0.81406964  0.91625903    -0.21200
C669        C  0.33742544  0.81088689  0.96501848    -0.21400
C670        C  0.37831410  0.77617834  0.97938489     0.01600
H671        H  0.31437503  0.83773208  0.89312217     0.15400
H672        H  0.30782331  0.83034351  0.98774953     0.15400
N673        N  0.65274286  0.03020582  0.31480613    -0.00900
C674        C  0.63328930  0.00242892  0.35295315     0.01700
C675        C  0.59681747  0.96311961  0.33860057    -0.21200
C676        C  0.59424256  0.46585043  0.29320353    -0.21400
C677        C  0.62790100  0.00792650  0.27639331     0.01600
H678        H  0.57392445  0.43931976  0.36585046     0.15400
H679        H  0.56608331  0.44354236  0.27112629     0.15400
O680        O  0.71295389  0.20083015  0.27533589    -0.69200
O681        O  0.82131668  0.09079345  0.27515674    -0.69400
O682        O  0.71198424  0.09131047  0.27577439    -0.69200
O683        O  0.82253981  0.20031686  0.27548685    -0.69200
O684        O  0.82196953  0.20012650  0.35278748    -0.69200
O685        O  0.71245414  0.09111769  0.35308129    -0.69200
O686        O  0.82198508  0.09075421  0.35246307    -0.69200
O687        O  0.71245261  0.20070374  0.35264851    -0.65400
V688        V  0.76715342  0.14582360  0.27694576     1.35200
V689        V  0.76719802  0.14571354  0.35123809     1.35200
C690        C  0.69403592  0.21951279  0.31385881     0.80100
C691        C  0.84038150  0.07208182  0.31361524     0.80100
C692        C  0.69358918  0.07240377  0.31455106     0.80000
C693        C  0.84128256  0.21864758  0.31433350     0.80000
N694        N  0.88234351  0.03102931  0.31299660    -0.00900
C695        C  0.90567262  0.00633853  0.35105854     0.01700
C696        C  0.94578816  0.97092935  0.33647781    -0.21200
C697        C  0.94759451  0.46296250  0.28997319    -0.21400
C698        C  0.90795273  0.01041841  0.27416905     0.01600
H699        H  0.96636031  0.43174449  0.36133170     0.15400
H700        H  0.97185118  0.43784140  0.26664356     0.15400
N701        N  0.65237368  0.26085513  0.31337662    -0.00900
C702        C  0.62622444  0.28121858  0.27473589     0.01700
C703        C  0.58811102  0.31925226  0.28827096    -0.21200
C704        C  0.59048365  0.32251946  0.33698811    -0.21400
C705        C  0.63025821  0.28668256  0.35138994     0.01600
H706        H  0.56103139  0.34134922  0.26501714     0.15400
H707        H  0.56649328  0.34858081  0.35965372     0.15400
N708        N  0.88391729  0.25906151  0.31513998    -0.00900
C709        C  0.91300753  0.27856089  0.27780012     0.01700
C710        C  0.95270884  0.31391327  0.29340909    -0.21200
C711        C  0.94851972  0.31623024  0.34209434    -0.21400
C712        C  0.90591460  0.28269561  0.35435313     0.01600
H713        H  0.98244339  0.33429624  0.27153833     0.15400
H714        H  0.97360013  0.33968861  0.36610387     0.15400
N715        N  0.65741039  0.50518172  0.19087987    -0.00900
C716        C  0.62725792  0.03070638  0.22820436     0.01700
C717        C  0.59353203  0.07300895  0.21564818    -0.21200
C718        C  0.59520480  0.07623626  0.16690233    -0.21400
C719        C  0.63028955  0.03614489  0.15150611     0.01600
H720        H  0.57038006  0.09853156  0.23951933     0.15400
H721        H  0.57470421  0.10574966  0.14485351     0.15400
O722        O  0.71799021  0.33618439  0.15126799    -0.69200
O723        O  0.82767185  0.44518717  0.15134966    -0.69400
O724        O  0.82754645  0.33550594  0.15159421    -0.69200
O725        O  0.71810765  0.44556946  0.15172100    -0.69200
O726        O  0.71846762  0.44552873  0.22902666    -0.69200
O727        O  0.82682031  0.33528845  0.22890022    -0.69200
O728        O  0.82788405  0.44485573  0.22865639    -0.69200
O729        O  0.71732008  0.33600035  0.22856824    -0.69400
V730        V  0.77284030  0.39058177  0.15298121     1.35200
V731        V  0.77267333  0.39040899  0.22727022     1.35200
C732        C  0.69861736  0.31769185  0.18971748     0.80100
C733        C  0.84647221  0.46378791  0.18996887     0.80100
C734        C  0.84585816  0.31662896  0.19040033     0.80000
C735        C  0.69954155  0.46425322  0.19051055     0.80000
N736        N  0.88774839  0.50560403  0.18993001    -0.00900
C737        C  0.90811709  0.53284698  0.15185051     0.01700
C738        C  0.93902398  0.07444190  0.16222701    -0.21200
C739        C  0.94258556  0.07221479  0.21097234    -0.21400
C740        C  0.90620346  0.03300674  0.22577113     0.01600
H741        H  0.96152886  0.10079403  0.13862481     0.15400
H742        H  0.96942934  0.09574392  0.23334908     0.15400
N743        N  0.65584959  0.27744347  0.18900969    -0.00900
C744        C  0.63341591  0.25400647  0.14990813     0.01700
C745        C  0.59055162  0.22090091  0.16240583    -0.21200
C746        C  0.58671446  0.22327272  0.21113784    -0.21400
C747        C  0.62688740  0.25822115  0.22651960     0.01600
H748        H  0.56512880  0.19759432  0.13853714     0.15400
H749        H  0.55692716  0.20324239  0.23319272     0.15400
N750        N  0.88780363  0.27552471  0.19093574    -0.00900
C751        C  0.91433789  0.25567183  0.22957556     0.01700
C752        C  0.95388438  0.21914600  0.21596470    -0.21200
C753        C  0.95184367  0.21607323  0.16722794    -0.21400
C754        C  0.91088553  0.25060425  0.15288708     0.01600
H755        H  0.98180555  0.19811026  0.23920948     0.15400
H756        H  0.97689958  0.19099448  0.14453901     0.15400
O757        O  0.96724962  0.33736043  0.10441978    -0.69200
O758        O  0.57245116  0.44642772  0.10244468    -0.69400
O759        O  0.96644173  0.44682547  0.10397216    -0.69200
O760        O  0.57139752  0.33700595  0.10141724    -0.69200
O761        O  0.57211576  0.33778164  0.02412201    -0.69200
O762        O  0.96644919  0.44654650  0.02666587    -0.69200
O763        O  0.57320796  0.44743640  0.02514882    -0.69200
O764        O  0.96705098  0.33694950  0.02711678    -0.69400
V765        V  0.51718921  0.39227375  0.10010756     1.35200
V766        V  0.51786328  0.39306724  0.02582557     1.35200
C767        C  0.94860960  0.31822350  0.06586922     0.80100
C768        C  0.59176675  0.46546548  0.06414568     0.80100
C769        C  0.94762831  0.46530374  0.06527041     0.80000
C770        C  0.59049073  0.31867523  0.06274802     0.80000
N771        N  0.63397847  0.50634782  0.06504143    -0.00900
C772        C  0.65621029  0.53012448  0.10407594     0.01700
C773        C  0.68540434  0.07851134  0.08751708    -0.21200
C774        C  0.68746592  0.07516870  0.03877931    -0.21400
C775        C  0.65609461  0.03101385  0.02626858     0.01600
H776        H  0.70414710  0.10917213  0.10956468     0.15400
H777        H  0.70951823  0.10176401  0.01496039     0.15400
N778        N  0.63291658  0.27804408  0.06282854    -0.00900
C779        C  0.65615635  0.25466893  0.10158692     0.01700
C780        C  0.69954913  0.22250877  0.08851845    -0.21200
C781        C  0.70280052  0.22530706  0.03977494    -0.21400
C782        C  0.66161989  0.25940482  0.02491984     0.01600
H783        H  0.72573608  0.19949059  0.11197986     0.15400
H784        H  0.73295791  0.20619688  0.01738845     0.15400
N785        N  0.90618768  0.50691144  0.06521074    -0.00900
C786        C  0.87764627  0.03522751  0.10091278     0.01700
C787        C  0.83421594  0.06710959  0.08742473    -0.21200
C788        C  0.83105576  0.06354253  0.03877295    -0.21400
C789        C  0.87242724  0.02941804  0.02441393     0.01600
H790        H  0.80802076  0.09055447  0.11053343     0.15400
H791        H  0.80101538  0.08235235  0.01610516     0.15400
N792        N  0.90798917  0.27575065  0.06614543    -0.00900
C793        C  0.88844741  0.24872224  0.10460183     0.01700
C794        C  0.85212150  0.20903958  0.09091311    -0.21200
C795        C  0.84884679  0.21144539  0.04216253    -0.21400
C796        C  0.88308740  0.25280595  0.02797419     0.01600
H797        H  0.83142715  0.18077498  0.11409576     0.15400
H798        H  0.82376243  0.18637240  0.01942991     0.15400
O799        O  0.96744900  0.19774037  0.47933546    -0.69200
O800        O  0.57483310  0.09034783  0.47757534    -0.69400
O801        O  0.57382162  0.19996696  0.47687015    -0.69200
O802        O  0.96628165  0.08814613  0.47835993    -0.69200
O803        O  0.96675045  0.08906567  0.40105853    -0.69200
O804        O  0.57408572  0.19918638  0.39956698    -0.69200
O805        O  0.57510398  0.08965225  0.40027080    -0.69200
O806        O  0.96763711  0.19846074  0.40203465    -0.69400
V807        V  0.51960648  0.14471082  0.47558601     1.35200
V808        V  0.51983777  0.14379335  0.40130050     1.35200
C809        C  0.94880877  0.21681177  0.44083087     0.80100
C810        C  0.59378306  0.07137630  0.43906032     0.80100
C811        C  0.59240746  0.21858510  0.43815851     0.80000
C812        C  0.94755605  0.07011076  0.43939897     0.80000
N813        N  0.63291767  0.26115056  0.43804044    -0.00900
C814        C  0.65280384  0.28807190  0.39966215     0.01700
C815        C  0.68920317  0.32760323  0.41354187    -0.21200
C816        C  0.69209731  0.32526589  0.46230925    -0.21400
C817        C  0.65753478  0.28412237  0.47635529     0.01600
H818        H  0.71015515  0.35578905  0.39046599     0.15400
H819        H  0.71710117  0.35027246  0.48515919     0.15400
N820        N  0.63524420  0.02978394  0.43934194    -0.00900
C821        C  0.65605333  0.00287016  0.40128174     0.01700
C822        C  0.69348101  0.96457967  0.41586851    -0.21200
C823        C  0.70772505  0.47280592  0.46470121    -0.21400
C824        C  0.66011626  0.00798771  0.47798522     0.01600
H825        H  0.73088820  0.44655738  0.39272689     0.15400
H826        H  0.73791833  0.45399947  0.48721061     0.15400
N827        N  0.90539830  0.02919885  0.43853120    -0.00900
C828        C  0.88351845  0.00497819  0.39954444     0.01700
C829        C  0.84321047  0.96899068  0.41246183    -0.21200
C830        C  0.85168711  0.46204352  0.46605370    -0.21400
C831        C  0.87833685  0.00785187  0.47624373     0.01600
H832        H  0.83427516  0.42819754  0.39535268     0.15400
H833        H  0.82947242  0.43569597  0.48996996     0.15400
N834        N  0.90645582  0.25750238  0.44114776    -0.00900
C835        C  0.88320960  0.28147356  0.40268305     0.01700
C836        C  0.84034784  0.31408015  0.41626145    -0.21200
C837        C  0.83743750  0.31089808  0.46502112    -0.21400
C838        C  0.87832078  0.27618238  0.47938662     0.01600
H839        H  0.81439076  0.33774732  0.39312477     0.15400
H840        H  0.80784142  0.33035947  0.48775151     0.15400
N841        N  0.65224446  0.03024366  0.81433020    -0.00900
C842        C  0.63026364  0.00445696  0.85252853     0.01700
C843        C  0.59147521  0.96750266  0.83805295    -0.21200
C844        C  0.59227950  0.46664551  0.79182755    -0.21400
C845        C  0.62703632  0.00873727  0.77574645     0.01600
H846        H  0.57177868  0.43863312  0.86396803     0.15400
H847        H  0.56504915  0.44385217  0.76923042     0.15400
O848        O  0.71433765  0.19981245  0.77528516    -0.69200
O849        O  0.82221664  0.08900419  0.77515423    -0.69400
O850        O  0.71287759  0.09018198  0.77559171    -0.69200
O851        O  0.82394034  0.19853994  0.77574376    -0.69200
O852        O  0.82363254  0.19788768  0.85304943    -0.69200
O853        O  0.71276111  0.09015966  0.85290043    -0.69200
O854        O  0.82221465  0.08855388  0.85246259    -0.69200
O855        O  0.71410625  0.19978855  0.85259286    -0.65400
V856        V  0.76830574  0.14439039  0.77694666     1.35200
V857        V  0.76816868  0.14413585  0.85123816     1.35200
C858        C  0.69572867  0.21876862  0.81383909     0.80100
C859        C  0.84070521  0.06984840  0.81366517     0.80100
C860        C  0.69398784  0.07155922  0.81429162     0.80000
C861        C  0.84290624  0.21652410  0.81463391     0.80000
N862        N  0.88205226  0.02817100  0.81330483    -0.00900
C863        C  0.90374236  0.00249999  0.85159458     0.01700
C864        C  0.94413001  0.96707587  0.83772719    -0.21200
C865        C  0.95064307  0.46559792  0.79147338    -0.21400
C866        C  0.90882916  0.00795151  0.77491883     0.01600
H867        H  0.97022874  0.43656153  0.86345130     0.15400
H868        H  0.97747860  0.44247648  0.76878854     0.15400
N869        N  0.65437272  0.26051179  0.81357369    -0.00900
C870        C  0.62751085  0.28091754  0.77532360     0.01700
C871        C  0.58913843  0.31847101  0.78944303    -0.21200
C872        C  0.59214468  0.32150560  0.83814655    -0.21400
C873        C  0.63259144  0.28607307  0.85185585     0.01600
H874        H  0.56132398  0.34023227  0.76661731     0.15400
H875        H  0.56800383  0.34699482  0.86122632     0.15400
N876        N  0.88527624  0.25718041  0.81539606    -0.00900
C877        C  0.91177462  0.27897167  0.77757127     0.01700
C878        C  0.94928734  0.31695918  0.79247373    -0.21200
C879        C  0.94646914  0.31842188  0.84126949    -0.21400
C880        C  0.90704938  0.28153056  0.85436715     0.01600
H881        H  0.97630820  0.34017536  0.77004838     0.15400
H882        H  0.96981111  0.34408509  0.86484579     0.15400
N883        N  0.65768559  0.50838384  0.69093004    -0.00900
C884        C  0.62770261  0.03146089  0.72755139     0.01700
C885        C  0.59240496  0.07210213  0.71395153    -0.21200
C886        C  0.59529893  0.07520717  0.66525555    -0.21400
C887        C  0.63257330  0.03663496  0.65100004     0.01600
H888        H  0.56700333  0.09625363  0.73711667     0.15400
H889        H  0.57362391  0.10322673  0.64252850     0.15400
O890        O  0.71658103  0.33923510  0.65139757    -0.69200
O891        O  0.82769620  0.44672434  0.65177042    -0.69400
O892        O  0.82608234  0.33711362  0.65182213    -0.69200
O893        O  0.71825686  0.44857546  0.65205727    -0.69200
O894        O  0.71807274  0.44816591  0.72936145    -0.69200
O895        O  0.82575049  0.33702823  0.72912825    -0.69200
O896        O  0.82752210  0.44664571  0.72908103    -0.69200
O897        O  0.71621722  0.33857075  0.72870109    -0.69400
V898        V  0.77215550  0.39289986  0.65328208     1.35200
V899        V  0.77192832  0.39260726  0.72757190     1.35200
C900        C  0.69730772  0.32056079  0.68980664     0.80100
C901        C  0.84655241  0.46517501  0.69041011     0.80100
C902        C  0.84438185  0.31806821  0.69056178     0.80000
C903        C  0.69959963  0.46724587  0.69079783     0.80000
N904        N  0.88864845  0.50611609  0.69038110    -0.00900
C905        C  0.91074154  0.53167599  0.65212899     0.01700
C906        C  0.94243307  0.07236701  0.66364641    -0.21200
C907        C  0.94498453  0.07001818  0.71245081    -0.21400
C908        C  0.90835950  0.03071354  0.72652884     0.01600
H909        H  0.96507376  0.09921951  0.64057568     0.15400
H910        H  0.97118049  0.09367640  0.73532851     0.15400
N911        N  0.65483997  0.28000102  0.68906015    -0.00900
C912        C  0.63242763  0.25631785  0.65004406     0.01700
C913        C  0.59198334  0.22050594  0.66308369    -0.21200
C914        C  0.58934701  0.22183185  0.71190617    -0.21400
C915        C  0.62801153  0.25862283  0.72689166     0.01600
H916        H  0.56772388  0.19570262  0.63947532     0.15400
H917        H  0.56153229  0.19952633  0.73430813     0.15400
N918        N  0.88585230  0.27642652  0.69085872    -0.00900
C919        C  0.91289098  0.25653967  0.72920718     0.01700
C920        C  0.95187350  0.21952223  0.71529253    -0.21200
C921        C  0.94896406  0.21616012  0.66659228    -0.21400
C922        C  0.90800039  0.25093520  0.65266858     0.01600
H923        H  0.98004965  0.19837589  0.73825378     0.15400
H924        H  0.97354153  0.19085389  0.64367785     0.15400
O925        O  0.96773383  0.33417006  0.60399625    -0.69200
O926        O  0.57263484  0.45244520  0.60232198    -0.69400
O927        O  0.96689607  0.44357353  0.60435713    -0.69200
O928        O  0.57237352  0.34299426  0.60212111    -0.69200
O929        O  0.57303200  0.34348342  0.52482008    -0.69200
O930        O  0.96696716  0.44360910  0.52705549    -0.69200
O931        O  0.57354951  0.45302208  0.52502917    -0.69200
O932        O  0.96764517  0.33408245  0.52669120    -0.69400
V933        V  0.51772347  0.39801131  0.60034337     1.35200
V934        V  0.51848515  0.39837628  0.52606062     1.35200
C935        C  0.94885800  0.31551405  0.56534884     0.80100
C936        C  0.59220954  0.47106689  0.56395393     0.80100
C937        C  0.94824385  0.46236480  0.56570424     0.80000
C938        C  0.59134064  0.32441419  0.56349068     0.80000
N939        N  0.63534628  0.51094431  0.56484079    -0.00900
C940        C  0.65814668  0.53348495  0.60416897     0.01700
C941        C  0.69222233  0.07517566  0.58819632    -0.21200
C942        C  0.69498491  0.07183076  0.53948679    -0.21400
C943        C  0.65992760  0.03083724  0.52618081     0.01600
H944        H  0.71385026  0.10334019  0.61080120     0.15400
H945        H  0.72017736  0.09603004  0.51616985     0.15400
N946        N  0.63287047  0.28285558  0.56338664    -0.00900
C947        C  0.65489601  0.25719521  0.60160499     0.01700
C948        C  0.69433329  0.22086174  0.58729796    -0.21200
C949        C  0.69640820  0.22351666  0.53848885    -0.21400
C950        C  0.65863734  0.26181606  0.52482355     0.01600
H951        H  0.71814979  0.19470551  0.61007771     0.15400
H952        H  0.72301616  0.20085589  0.51522810     0.15400
N953        N  0.90757991  0.50477197  0.56562217    -0.00900
C954        C  0.88163589  0.03426090  0.60137569     0.01700
C955        C  0.84201413  0.07053702  0.58740167    -0.21200
C956        C  0.83961807  0.06799243  0.53864086    -0.21400
C957        C  0.87759977  0.03000327  0.52468757     0.01600
H958        H  0.81816738  0.09646445  0.61034982     0.15400
H959        H  0.81252853  0.09042704  0.51564036     0.15400
N960        N  0.90691286  0.27440439  0.56558909    -0.00900
C961        C  0.88531044  0.24980559  0.60444399     0.01700
C962        C  0.84509382  0.21378240  0.59151235    -0.21200
C963        C  0.84170960  0.21584979  0.54276202    -0.21400
C964        C  0.87967060  0.25342896  0.52774968     0.01600
H965        H  0.82144921  0.18847903  0.61516585     0.15400
H966        H  0.81390147  0.19335850  0.52048584     0.15400
O967        O  0.96600026  0.19281651  0.97883229    -0.69200
O968        O  0.57318066  0.09284878  0.97729248    -0.69400
O969        O  0.57239679  0.20233081  0.97730053    -0.69200
O970        O  0.96499740  0.08325602  0.97878441    -0.69200
O971        O  0.96576312  0.08352968  0.90148645    -0.69200
O972        O  0.57278970  0.20189988  0.89999454    -0.69200
O973        O  0.57355644  0.09249333  0.89999076    -0.69200
O974        O  0.96600336  0.19300630  0.90152767    -0.69400
V975        V  0.51803023  0.14723316  0.97552052     1.35200
V976        V  0.51836706  0.14675159  0.90123402     1.35200
C977        C  0.94748734  0.21184659  0.94024972     0.80100
C978        C  0.59211560  0.07397724  0.93874034     0.80100
C979        C  0.59139702  0.22075713  0.93869680     0.80000
C980        C  0.94625794  0.06506490  0.93989688     0.80000
N981        N  0.63339906  0.26181607  0.93867710    -0.00900
C982        C  0.65528517  0.28652493  0.90002817     0.01700
C983        C  0.69601850  0.32186052  0.91316747    -0.21200
C984        C  0.69936168  0.31936242  0.96188127    -0.21400
C985        C  0.66085913  0.28221468  0.97662327     0.01600
H986        H  0.72012300  0.34691207  0.88966277     0.15400
H987        H  0.72753397  0.34120816  0.98431217     0.15400
N988        N  0.63293879  0.03175742  0.93901200    -0.00900
C989        C  0.65248162  0.00365391  0.90108161     0.01700
C990        C  0.68685847  0.96276055  0.91605196    -0.21200
C991        C  0.69955557  0.46724957  0.96482920    -0.21400
C992        C  0.65605674  0.00850073  0.97786460     0.01600
H993        H  0.72074785  0.43875592  0.89305946     0.15400
H994        H  0.72651686  0.44457789  0.98777784     0.15400
N995        N  0.90322899  0.02507189  0.93904095    -0.00900
C996        C  0.88080948  0.00189881  0.89981193     0.01700
C997        C  0.83742997  0.96931681  0.91198430    -0.21200
C998        C  0.84471035  0.46644377  0.96504217    -0.21400
C999        C  0.87357743  0.00628024  0.97630825     0.01600
H1000       H  0.82491403  0.43564880  0.89365732     0.15400
H1001       H  0.81885467  0.44295349  0.98833983     0.15400
N1002       N  0.90637742  0.25380340  0.94068255    -0.00900
C1003       C  0.88463551  0.28029514  0.90279475     0.01700
C1004       C  0.84634808  0.31756093  0.91766218    -0.21200
C1005       C  0.84468589  0.31461311  0.96646814    -0.21400
C1006       C  0.88157154  0.27521905  0.97956486     0.01600
H1007       H  0.82314560  0.34459407  0.89523569     0.15400
H1008       H  0.81902682  0.33793793  0.99006847     0.15400
N1009       N  0.65959978  0.52449391  0.31561160    -0.00900
C1010       C  0.63827878  0.49988057  0.35457276     0.01700
C1011       C  0.59778752  0.46407219  0.34194653    -0.21200
C1012       C  0.59371214  0.96633957  0.28988155    -0.21400
C1013       C  0.63227940  0.50321065  0.27791969     0.01600
H1014       H  0.57582432  0.93458637  0.36129781     0.15400
H1015       H  0.56899872  0.94159762  0.26662980     0.15400
O1016       O  0.71698121  0.69470771  0.27610246    -0.69200
O1017       O  0.82843092  0.58692845  0.27623150    -0.69400
O1018       O  0.71894061  0.58511743  0.27632362    -0.69200
O1019       O  0.82636248  0.69650975  0.27514557    -0.69200
O1020       O  0.82704468  0.69746674  0.35244517    -0.69200
O1021       O  0.71958705  0.58565786  0.35362492    -0.69200
O1022       O  0.82908942  0.58784729  0.35353397    -0.69200
O1023       O  0.71756514  0.69506568  0.35340705    -0.65400
V1024       V  0.77273111  0.64083053  0.27745971     1.35200
V1025       V  0.77332742  0.64148646  0.35174556     1.35200
C1026       C  0.69819878  0.71324428  0.31485291     0.80100
C1027       C  0.84766374  0.56884901  0.31498583     0.80100
C1028       C  0.70079857  0.56639030  0.31513213     0.80000
C1029       C  0.84492032  0.71620492  0.31344087     0.80000
N1030       N  0.88903157  0.52715309  0.31516345    -0.00900
C1031       C  0.90929505  0.49994163  0.35329967     0.01700
C1032       C  0.94534022  0.46033244  0.33872613    -0.21200
C1033       C  0.94702481  0.97331294  0.28762077    -0.21400
C1034       C  0.91313979  0.50436703  0.27659764     0.01600
H1035       H  0.97059578  0.94554921  0.35911093     0.15400
H1036       H  0.97403135  0.95138183  0.26417482     0.15400
N1037       N  0.65599478  0.75407933  0.31511373    -0.00900
C1038       C  0.63051557  0.77585190  0.27675422     0.01700
C1039       C  0.59336028  0.81459082  0.29073284    -0.21200
C1040       C  0.59538850  0.81658345  0.33956908    -0.21400
C1041       C  0.63412940  0.77936450  0.35359601     0.01600
H1042       H  0.56722723  0.83803562  0.26767249     0.15400
H1043       H  0.57210234  0.84295829  0.36257695     0.15400
N1044       N  0.88512057  0.75902507  0.31254526    -0.00900
C1045       C  0.90933810  0.78105254  0.27363494     0.01700
C1046       C  0.94426018  0.82230503  0.28661218    -0.21200
C1047       C  0.94192605  0.82578489  0.33535304    -0.21400
C1048       C  0.90533870  0.78689841  0.35026147     0.01600
H1049       H  0.96893467  0.84673263  0.26302748     0.15400
H1050       H  0.96336419  0.85432640  0.35770363     0.15400
N1051       N  0.65054708  0.00808877  0.18918122    -0.00900
C1052       C  0.63083428  0.52545396  0.22937616     0.01700
C1053       C  0.59079977  0.56125548  0.21528788    -0.21200
C1054       C  0.59257118  0.56336743  0.16645342    -0.21400
C1055       C  0.63387473  0.52903239  0.15249584     0.01600
H1056       H  0.56261587  0.58228675  0.23828809     0.15400
H1057       H  0.56712786  0.58771469  0.14344717     0.15400
O1058       O  0.71259487  0.83822629  0.15023316    -0.69200
O1059       O  0.81987929  0.95016650  0.14962331    -0.69400
O1060       O  0.82208362  0.84080335  0.14919247    -0.69200
O1061       O  0.71036155  0.94786977  0.15000292    -0.69200
O1062       O  0.71142879  0.94805825  0.22730440    -0.69200
O1063       O  0.82273252  0.84033538  0.22649953    -0.69200
O1064       O  0.82090135  0.94987037  0.22692213    -0.69200
O1065       O  0.71332489  0.83849099  0.22753587    -0.69400
V1066       V  0.76623502  0.89427450  0.15127003     1.35200
V1067       V  0.76704077  0.89420095  0.22555711     1.35200
C1068       C  0.69475711  0.81909916  0.18910204     0.80100
C1069       C  0.83883977  0.96902554  0.18818537     0.80100
C1070       C  0.84143546  0.82218589  0.18760632     0.80000
C1071       C  0.69195119  0.96645021  0.18877283     0.80000
N1072       N  0.87973304  0.01120780  0.18787286    -0.00900
C1073       C  0.90022105  0.03698381  0.14914591     0.01700
C1074       C  0.94617223  0.57062439  0.16619964    -0.21200
C1075       C  0.94923566  0.56712655  0.21488545    -0.21400
C1076       C  0.91339395  0.52695024  0.22835731     0.01600
H1077       H  0.96842768  0.59826327  0.14355252     0.15400
H1078       H  0.97510705  0.59064396  0.23813569     0.15400
N1079       N  0.65479240  0.77600134  0.18967003    -0.00900
C1080       C  0.63531827  0.74776439  0.15185346     0.01700
C1081       C  0.59958262  0.70799268  0.16654355    -0.21200
C1082       C  0.59682148  0.71137643  0.21523805    -0.21400
C1083       C  0.63074871  0.75338510  0.22840105     0.01600
H1084       H  0.57898648  0.67894980  0.14404847     0.15400
H1085       H  0.57247046  0.68639097  0.23864307     0.15400
N1086       N  0.88327766  0.78101821  0.18703498    -0.00900
C1087       C  0.90859360  0.75861113  0.22521756     0.01700
C1088       C  0.94452011  0.71883068  0.21092570    -0.21200
C1089       C  0.94189612  0.71690796  0.16210219    -0.21400
C1090       C  0.90411362  0.75523036  0.14839518     0.01600
H1091       H  0.97023169  0.69456168  0.23370492     0.15400
H1092       H  0.96413533  0.68989144  0.13887015     0.15400
O1093       O  0.96284171  0.84336329  0.10143370    -0.69200
O1094       O  0.57636934  0.94462369  0.10448225    -0.69400
O1095       O  0.96296190  0.95290611  0.10151923    -0.69200
O1096       O  0.57737640  0.83488032  0.10420462    -0.69200
O1097       O  0.57734199  0.83486644  0.02689867    -0.69200
O1098       O  0.96375953  0.95320026  0.02421989    -0.69200
O1099       O  0.57619724  0.94447365  0.02718249    -0.69200
O1100       O  0.96372300  0.84366756  0.02413104    -0.69400
V1101       V  0.52210987  0.88922232  0.10276105     1.35200
V1102       V  0.52208252  0.88922232  0.02847456     1.35200
C1103       C  0.94463925  0.82471706  0.06258659     0.80100
C1104       C  0.59448852  0.96378744  0.06577778     0.80100
C1105       C  0.94432386  0.97149528  0.06275198     0.80000
C1106       C  0.59626511  0.81629194  0.06554273     0.80000
N1107       N  0.63400168  0.00726403  0.06537782    -0.00900
C1108       C  0.65250527  0.03664913  0.10297357     0.01700
C1109       C  0.69717896  0.56541932  0.09126916    -0.21200
C1110       C  0.70018583  0.56395477  0.04249089    -0.21400
C1111       C  0.66128408  0.52748734  0.02735030     0.01600
H1112       H  0.72166262  0.58982315  0.11501092     0.15400
H1113       H  0.72850700  0.58582292  0.02025566     0.15400
N1114       N  0.63793381  0.77482035  0.06554431    -0.00900
C1115       C  0.65822172  0.74781996  0.10373147     0.01700
C1116       C  0.69627392  0.70991017  0.08974375    -0.21200
C1117       C  0.69975141  0.71330021  0.04110852    -0.21400
C1118       C  0.66398995  0.75345200  0.02728316     0.01600
H1119       H  0.71817075  0.68223967  0.11261011     0.15400
H1120       H  0.72583671  0.68961305  0.01815050     0.15400
N1121       N  0.90123913  0.01148433  0.06250568    -0.00900
C1122       C  0.88537792  0.53327126  0.10353973     0.01700
C1123       C  0.84796443  0.57177011  0.08940228    -0.21200
C1124       C  0.84551316  0.56932694  0.04058951    -0.21400
C1125       C  0.88125430  0.52914735  0.02675399     0.01600
H1126       H  0.82593363  0.59930020  0.11231560     0.15400
H1127       H  0.82006673  0.59356807  0.01752221     0.15400
N1128       N  0.90335425  0.78294886  0.06204602    -0.00900
C1129       C  0.88170057  0.75633500  0.09992829     0.01700
C1130       C  0.84394814  0.71853868  0.08496027    -0.21200
C1131       C  0.84244429  0.72143131  0.03615696    -0.21400
C1132       C  0.87893708  0.76120116  0.02315477     0.01600
H1133       H  0.82116781  0.69100313  0.10726820     0.15400
H1134       H  0.81724528  0.69772323  0.01246496     0.15400
O1135       O  0.96278238  0.70165679  0.47652314    -0.69200
O1136       O  0.57483142  0.58294180  0.47952411    -0.69400
O1137       O  0.57528080  0.69242815  0.47899354    -0.69200
O1138       O  0.96392302  0.59205179  0.47703846    -0.69200
O1139       O  0.96401140  0.59129985  0.39974331    -0.69200
O1140       O  0.57553622  0.69239900  0.40168667    -0.69200
O1141       O  0.57538700  0.58296451  0.40222112    -0.69200
O1142       O  0.96325001  0.70101470  0.39921689    -0.69400
V1143       V  0.52027831  0.63781684  0.47752848     1.35200
V1144       V  0.52066006  0.63788345  0.40324106     1.35200
C1145       C  0.94418652  0.71995705  0.43763532     0.80100
C1146       C  0.59415227  0.56454360  0.44103100     0.80100
C1147       C  0.59410342  0.71115935  0.44032861     0.80000
C1148       C  0.94567913  0.57249810  0.43855017     0.80000
N1149       N  0.63536271  0.75295399  0.44032865    -0.00900
C1150       C  0.65650126  0.77935353  0.40210269     0.01700
C1151       C  0.69396867  0.81767687  0.41654116    -0.21200
C1152       C  0.69589685  0.81527949  0.46536833    -0.21400
C1153       C  0.65997103  0.77520750  0.47890423     0.01600
H1154       H  0.71639201  0.84507772  0.39382714     0.15400
H1155       H  0.72111582  0.83939746  0.48869961     0.15400
N1156       N  0.63727248  0.52463836  0.44131654    -0.00900
C1157       C  0.66096912  0.50135835  0.40276712     0.01700
C1158       C  0.70457741  0.46963722  0.41602040    -0.21200
C1159       C  0.69582708  0.96761652  0.46464247    -0.21400
C1160       C  0.66619539  0.50660485  0.47934475     0.01600
H1161       H  0.71558987  0.93676772  0.39329051     0.15400
H1162       H  0.72105763  0.94356990  0.48803785     0.15400
N1163       N  0.90587886  0.52925976  0.43922316    -0.00900
C1164       C  0.88682991  0.50008870  0.40171917     0.01700
C1165       C  0.85344272  0.45867696  0.41730445    -0.21200
C1166       C  0.84015392  0.97059305  0.46122673    -0.21400
C1167       C  0.88370515  0.50577640  0.47845224     0.01600
H1168       H  0.81922307  0.94402752  0.38879496     0.15400
H1169       H  0.81236984  0.94816365  0.48353545     0.15400
N1170       N  0.90259141  0.76143963  0.43700880    -0.00900
C1171       C  0.88231625  0.78761274  0.39837829     0.01700
C1172       C  0.84332012  0.82488442  0.41163810    -0.21200
C1173       C  0.83937629  0.82202611  0.46028793    -0.21400
C1174       C  0.87577659  0.78279250  0.47483831     0.01600
H1175       H  0.82088448  0.85159262  0.38827235     0.15400
H1176       H  0.81238181  0.84524038  0.48276934     0.15400
N1177       N  0.65661802  0.52578828  0.81540720    -0.00900
C1178       C  0.63493055  0.50079186  0.85400143     0.01700
C1179       C  0.59523009  0.46441116  0.84059041    -0.21200
C1180       C  0.58964041  0.97004453  0.78926399    -0.21400
C1181       C  0.63001879  0.50465448  0.77730102     0.01600
H1182       H  0.56785855  0.94105939  0.86073584     0.15400
H1183       H  0.56332703  0.94713631  0.76593975     0.15400
O1184       O  0.71652255  0.69483933  0.77634254    -0.69200
O1185       O  0.82658493  0.58550879  0.77597991    -0.69400
O1186       O  0.71703458  0.58533150  0.77641750    -0.69200
O1187       O  0.82583522  0.69499293  0.77523496    -0.69200
O1188       O  0.82702899  0.69580398  0.85253249    -0.69200
O1189       O  0.71754261  0.58581104  0.85372562    -0.69200
O1190       O  0.82711650  0.58623297  0.85328695    -0.69200
O1191       O  0.71752357  0.69520649  0.85364577    -0.65400
V1192       V  0.77152274  0.64016661  0.77750822     1.35200
V1193       V  0.77229052  0.64070765  0.85179799     1.35200
C1194       C  0.69836025  0.71378268  0.81516843     0.80100
C1195       C  0.84567112  0.56725443  0.81471300     0.80100
C1196       C  0.69847903  0.56695515  0.81518691     0.80000
C1197       C  0.84499439  0.71426269  0.81346127     0.80000
N1198       N  0.88735524  0.52588501  0.81505786    -0.00900
C1199       C  0.90826947  0.50012299  0.85363959     0.01700
C1200       C  0.94735696  0.46302666  0.84019262    -0.21200
C1201       C  0.94705384  0.97019722  0.78894938    -0.21400
C1202       C  0.91378418  0.50445837  0.77707701     0.01600
H1203       H  0.96827358  0.94154541  0.86079360     0.15400
H1204       H  0.97468748  0.94834903  0.76599666     0.15400
N1205       N  0.65745857  0.75589731  0.81564613    -0.00900
C1206       C  0.63232718  0.77846917  0.77747732     0.01700
C1207       C  0.59804565  0.81976773  0.79155313    -0.21200
C1208       C  0.60131154  0.82232984  0.84032615    -0.21400
C1209       C  0.63798685  0.78300680  0.85413810     0.01600
H1210       H  0.57306050  0.84468724  0.76867297     0.15400
H1211       H  0.58028561  0.85038960  0.86344674     0.15400
N1212       N  0.88601983  0.75624784  0.81219802    -0.00900
C1213       C  0.90948059  0.77788466  0.77275833     0.01700
C1214       C  0.94512698  0.81876661  0.78489438    -0.21200
C1215       C  0.94414737  0.82234273  0.83365537    -0.21400
C1216       C  0.90754075  0.78394281  0.84950836     0.01600
H1217       H  0.96920436  0.84299308  0.76070142     0.15400
H1218       H  0.96631041  0.85085706  0.85543781     0.15400
N1219       N  0.65292233  0.00952573  0.68912830    -0.00900
C1220       C  0.62939639  0.52738156  0.72894494     0.01700
C1221       C  0.58931566  0.56287375  0.71434540    -0.21200
C1222       C  0.59268977  0.56597765  0.66561195    -0.21400
C1223       C  0.63519254  0.53279091  0.65235994     0.01600
H1224       H  0.56002127  0.58295973  0.73691272     0.15400
H1225       H  0.56722831  0.58983260  0.64221903     0.15400
O1226       O  0.71235764  0.83932667  0.64997072    -0.69200
O1227       O  0.82215009  0.94895776  0.64946982    -0.69400
O1228       O  0.82189069  0.83950515  0.64890269    -0.69200
O1229       O  0.71252751  0.94897408  0.65013045    -0.69200
O1230       O  0.71325500  0.94880978  0.72743481    -0.69200
O1231       O  0.82300576  0.83916876  0.72620259    -0.69200
O1232       O  0.82279364  0.94869471  0.72677604    -0.69200
O1233       O  0.71369521  0.83930432  0.72726833    -0.69400
V1234       V  0.76725035  0.89422030  0.65111030     1.35200
V1235       V  0.76814958  0.89401030  0.72539683     1.35200
C1236       C  0.69445617  0.82046255  0.68890121     0.80100
C1237       C  0.84125896  0.96746827  0.68810597     0.80100
C1238       C  0.84106621  0.82051014  0.68725572     0.80000
C1239       C  0.69416236  0.96764171  0.68891842     0.80000
N1240       N  0.88281973  0.00894374  0.68812677    -0.00900
C1241       C  0.90411472  0.03472731  0.64972748     0.01700
C1242       C  0.95026340  0.56792461  0.66641254    -0.21200
C1243       C  0.95247860  0.56514793  0.71516440    -0.21400
C1244       C  0.91458278  0.52703206  0.72883778     0.01600
H1245       H  0.97413584  0.59404995  0.64365943     0.15400
H1246       H  0.97927791  0.58759433  0.73839589     0.15400
N1247       N  0.65370962  0.77820434  0.68986284    -0.00900
C1248       C  0.63315874  0.74991017  0.65250253     0.01700
C1249       C  0.59803430  0.71009456  0.66826842    -0.21200
C1250       C  0.59681025  0.71354511  0.71701933    -0.21400
C1251       C  0.63086801  0.75574878  0.72920321     0.01600
H1252       H  0.57717634  0.68066640  0.64640682     0.15400
H1253       H  0.57364957  0.68829540  0.74112650     0.15400
N1254       N  0.88182727  0.77823013  0.68649012    -0.00900
C1255       C  0.90719203  0.75529020  0.72441349     0.01700
C1256       C  0.94140025  0.71412060  0.70981879    -0.21200
C1257       C  0.93774026  0.71194294  0.66105631    -0.21400
C1258       C  0.90102732  0.75142357  0.64775007     0.01600
H1259       H  0.96667981  0.68906732  0.73232829     0.15400
H1260       H  0.95859425  0.68411607  0.63758145     0.15400
O1261       O  0.96190314  0.83803193  0.60094058    -0.69200
O1262       O  0.57594417  0.94782285  0.60392615    -0.69400
O1263       O  0.96296283  0.94763790  0.60171981    -0.69200
O1264       O  0.57679745  0.83816127  0.60447299    -0.69200
O1265       O  0.57651200  0.83756586  0.52716867    -0.69200
O1266       O  0.96369723  0.94841833  0.52441635    -0.69200
O1267       O  0.57590358  0.94720450  0.52662296    -0.69200
O1268       O  0.96259173  0.83877155  0.52363977    -0.69400
V1269       V  0.52161344  0.89253717  0.60269040     1.35200
V1270       V  0.52150730  0.89208313  0.52840322     1.35200
C1271       C  0.94331002  0.81988042  0.56205453     0.80100
C1272       C  0.59440435  0.96650043  0.56515010     0.80100
C1273       C  0.94484443  0.96699567  0.56307651     0.80000
C1274       C  0.59530152  0.81905220  0.56588649     0.80000
N1275       N  0.63511103  0.00888504  0.56480733    -0.00900
C1276       C  0.65524858  0.03647685  0.60274233     0.01700
C1277       C  0.70216495  0.56528328  0.59220024    -0.21200
C1278       C  0.70640756  0.56304295  0.54353406    -0.21400
C1279       C  0.66524859  0.52953263  0.52760937     0.01600
H1280       H  0.72819622  0.58753663  0.61634207     0.15400
H1281       H  0.73726979  0.58204683  0.52188958     0.15400
N1282       N  0.63591464  0.77659816  0.56594973    -0.00900
C1283       C  0.65536969  0.74880281  0.60405867     0.01700
C1284       C  0.69014810  0.70807947  0.58955187    -0.21200
C1285       C  0.69251015  0.71058132  0.54080374    -0.21400
C1286       C  0.65933663  0.75303911  0.52736302     0.01600
H1287       H  0.71018976  0.67885628  0.61222991     0.15400
H1288       H  0.71605767  0.68465374  0.51755835     0.15400
N1289       N  0.90359690  0.00883001  0.56304550    -0.00900
C1290       C  0.88827416  0.53276055  0.60369746     0.01700
C1291       C  0.85374531  0.57365648  0.58904065    -0.21200
C1292       C  0.85142851  0.57100412  0.54023055    -0.21400
C1293       C  0.88425014  0.52820613  0.52691484     0.01600
H1294       H  0.83402321  0.60321079  0.61163062     0.15400
H1295       H  0.82821759  0.59709962  0.51684374     0.15400
N1296       N  0.90091569  0.77920321  0.56151015    -0.00900
C1297       C  0.87828572  0.75362214  0.59948272     0.01700
C1298       C  0.83743439  0.71895197  0.58496974    -0.21200
C1299       C  0.83493209  0.72277376  0.53626468    -0.21400
C1300       C  0.87410083  0.75979295  0.52290782     0.01600
H1301       H  0.81279769  0.69318056  0.60746055     0.15400
H1302       H  0.80707072  0.70181321  0.51288997     0.15400
O1303       O  0.96433899  0.69911322  0.97632068    -0.69200
O1304       O  0.57583578  0.58732630  0.97896717    -0.69400
O1305       O  0.57694299  0.69693258  0.97922137    -0.69200
O1306       O  0.96544649  0.58951485  0.97760741    -0.69200
O1307       O  0.96561344  0.58836204  0.90030699    -0.69200
O1308       O  0.57717141  0.69733535  0.90191577    -0.69200
O1309       O  0.57626114  0.58776304  0.90166091    -0.69200
O1310       O  0.96459850  0.69790092  0.89902048    -0.69400
V1311       V  0.52165696  0.64256777  0.97747013     1.35200
V1312       V  0.52195915  0.64315526  0.90318348     1.35200
C1313       C  0.94570887  0.71719894  0.93735596     0.80100
C1314       C  0.59456108  0.56859351  0.94035754     0.80100
C1315       C  0.59600606  0.71563146  0.94062861     0.80000
C1316       C  0.94705057  0.56997571  0.93918415     0.80000
N1317       N  0.63833379  0.75635943  0.94073892    -0.00900
C1318       C  0.66071976  0.78162812  0.90247939     0.01700
C1319       C  0.70123609  0.81686392  0.91666215    -0.21200
C1320       C  0.70379512  0.81366524  0.96542125    -0.21400
C1321       C  0.66497882  0.77644407  0.97916907     0.01600
H1322       H  0.72565464  0.84251897  0.89389599     0.15400
H1323       H  0.73158214  0.83506657  0.98855639     0.15400
N1324       N  0.63579233  0.52672303  0.94051398    -0.00900
C1325       C  0.65759538  0.50119305  0.90220564     0.01700
C1326       C  0.69709106  0.46476758  0.91608009    -0.21200
C1327       C  0.68884550  0.96557926  0.96486672    -0.21400
C1328       C  0.66178242  0.50542936  0.97885333     0.01600
H1329       H  0.70667296  0.93308804  0.89368815     0.15400
H1330       H  0.71174317  0.93949031  0.98847153     0.15400
N1331       N  0.90613760  0.52783552  0.93976512    -0.00900
C1332       C  0.88542451  0.50072627  0.90183083     0.01700
C1333       C  0.84737670  0.46307157  0.91630566    -0.21200
C1334       C  0.83308513  0.97186938  0.96062153    -0.21400
C1335       C  0.88084290  0.50647044  0.97842886     0.01600
H1336       H  0.81185754  0.94634628  0.88797741     0.15400
H1337       H  0.80268640  0.95236420  0.98239079     0.15400
N1338       N  0.90481747  0.75936926  0.93659384    -0.00900
C1339       C  0.88524667  0.78609178  0.89793514     0.01700
C1340       C  0.84978618  0.82659578  0.91160032    -0.21200
C1341       C  0.84704162  0.82495990  0.96038000    -0.21400
C1342       C  0.88071056  0.78325494  0.97468870     0.01600
H1343       H  0.82935474  0.85496327  0.88833728     0.15400
H1344       H  0.82266601  0.85072657  0.98306792     0.15400
loop_ 
_geom_bond_atom_site_label_1 
_geom_bond_atom_site_label_2 
_geom_bond_distance 
_geom_bond_site_symmetry_2 
_ccdc_geom_bond_type 
N1            C5   1.357       .  A
N1            C2   1.355       .  A
N1           C20   1.443       .  S
C2            C3   1.376   1_545  A
C2          C149   1.464       .  S
C3          C340   1.372       .  A
C3          H342   1.079       .  S
C4          C339   1.372       .  A
C4          C341   1.376       .  A
C4            H7   1.079       .  S
C5          C340   1.378   1_545  A
C5           C44   1.468       .  S
H6          C339   1.079       .  S
O8           V16   1.906       .  S
O8           C18   1.267       .  A
O9           V16   1.907       .  S
O9           C19   1.266       .  A
O10          V16   1.900       .  S
O10          C20   1.264       .  A
O11          V16   1.898       .  S
O11          C21   1.264       .  A
O12          V17   1.909       .  S
O12          C21   1.267       .  A
O13          V17   1.906       .  S
O13          C20   1.267       .  A
O14          V17   1.900       .  S
O14          C19   1.264       .  A
O15          V17   1.899       .  S
O15          C18   1.264       .  A
V16          V17   2.086       .  T
C18          N29   1.443       .  S
C19          N22   1.443       .  S
C21          N36   1.443       .  S
N22          C26   1.355       .  A
N22          C23   1.356       .  A
C23          C24   1.377   1_545  A
C23         C156   1.465       .  S
C24         C361   1.372       .  A
C24         H363   1.079       .  S
C25         C360   1.374       .  A
C25         C362   1.378       .  A
C25          H28   1.079       .  S
C26         C361   1.377   1_545  A
C26          C68   1.464       .  S
H27         C360   1.079       .  S
N29          C33   1.357       .  A
N29          C30   1.356       .  A
C30          C31   1.377       .  A
C30          C75   1.466       .  S
C31          C32   1.373       .  A
C31          H34   1.079       .  S
C32          C33   1.377       .  A
C32          H35   1.079       .  S
C33         C142   1.468       .  S
N36          C40   1.357       .  A
N36          C37   1.357       .  A
C37          C38   1.376       .  A
C37          C79   1.468       .  S
C38          C39   1.372       .  A
C38          H41   1.080       .  S
C39          C40   1.378       .  A
C39          H42   1.078       .  S
C40         C163   1.467       .  S
N43         C383   1.356       .  A
N43         C380   1.356       .  A
N43          C63   1.444       .  S
C44         N379   1.357       .  A
C44          C45   1.378       .  A
C45          C46   1.373       .  A
C45          H48   1.079       .  S
C46          C47   1.376       .  A
C46          H49   1.080       .  S
C47         N379   1.356       .  A
C47         C436   1.466       .  S
O50          V58   1.908       .  S
O50          C60   1.266       .  A
O51          V58   1.906       .  S
O51          C61   1.267       .  A
O52          V58   1.901       .  S
O52          C62   1.265       .  A
O53          V58   1.902       .  S
O53          C63   1.265       .  A
O54          V59   1.907       .  S
O54          C63   1.266       .  A
O55          V59   1.906       .  S
O55          C62   1.266       .  A
O56          V59   1.900       .  S
O56          C61   1.264       .  A
O57          V59   1.898       .  S
O57          C60   1.264       .  A
V58          V59   2.086       .  T
C60          N71   1.443       .  S
C61          N64   1.443       .  S
C62          N78   1.443       .  S
N64          C65   1.356       .  A
N64         C404   1.357       .  A
C65         C402   1.377       .  A
C65         C450   1.466       .  S
C66          C67   1.372       .  A
C66         C401   1.378       .  A
C66          H69   1.079       .  S
C67          C68   1.376       .  A
C67          H70   1.079       .  S
C68         N400   1.355       .  A
N71          C75   1.356       .  A
N71          C72   1.356       .  A
C72          C73   1.378       .  A
C72         C107   1.466       .  S
C73          C74   1.372       .  A
C73          H76   1.078       .  S
C74          C75   1.376       .  A
C74          H77   1.080       .  S
N78          C82   1.356       .  A
N78          C79   1.356       .  A
C79          C80   1.378       .  A
C80          C81   1.373       .  A
C80          H83   1.079       .  S
C81          C82   1.376       .  A
C81          H84   1.079       .  S
C82         C121   1.467       .  S
O85         V765   1.904       .  S
O85          C95   1.265       .  A
O86          V93   1.905       .  S
O86          C96   1.266       .  A
O87         V765   1.905       .  S
O87          C97   1.266       .  A
O88          V93   1.904       .  S
O88          C98   1.265       .  A
O89          V94   1.903       .  S
O89          C98   1.266       .  A
O90         V766   1.903       .  S
O90          C97   1.265       .  A
O91          V94   1.904       .  S
O91          C96   1.266       .  A
O92         V766   1.905       .  S
O92          C95   1.266       .  A
V93         O757   1.904   1_455  S
V93         O759   1.902   1_455  S
V93          V94   2.086       .  T
V94         O762   1.904   1_455  S
V94         O764   1.905   1_455  S
C95         N120   1.444       .  S
C96          N99   1.444       .  S
C97         N113   1.444       .  S
C98         N106   1.444       .  S
N99         C100   1.356       .  A
N99         C439   1.356       .  A
C100        C437   1.377       .  A
C100        C383   1.465       .  S
C101        C102   1.371       .  A
C101        C436   1.376       .  A
C101        H104   1.081       .  S
C102        C103   1.379       .  A
C102        H105   1.078       .  S
C103        N435   1.357       .  A
C103        C320   1.468   1_554  S
N106        C110   1.357       .  A
N106        C107   1.356       .  A
C107        C108   1.378       .  A
C108        C109   1.371       .  A
C108        H111   1.079       .  S
C109        C110   1.377       .  A
C109        H112   1.080       .  S
C110        C313   1.466   1_554  S
N113        C453   1.356       .  A
N113        C450   1.356       .  A
C114        N449   1.357       .  A
C114        C115   1.378       .  A
C114        C401   1.468       .  S
C115        C116   1.373       .  A
C115        H118   1.079       .  S
C116        C117   1.377       .  A
C116        H119   1.081       .  S
C117        N449   1.357       .  A
C117        C327   1.468   1_554  S
N120        C124   1.355       .  A
N120        C121   1.357       .  A
C121        C122   1.378       .  A
C122        C123   1.372       .  A
C122        H125   1.080       .  S
C123        C124   1.377       .  A
C123        H126   1.079       .  S
C124        C334   1.464   1_554  S
O127        V807   1.906       .  S
O127        C137   1.266       .  A
O128        V135   1.902       .  S
O128        C138   1.264       .  A
O129        V135   1.906       .  S
O129        C139   1.267       .  A
O130        V807   1.901       .  S
O130        C140   1.264       .  A
O131        V808   1.906       .  S
O131        C140   1.266       .  A
O132        V136   1.901       .  S
O132        C139   1.264       .  A
O133        V136   1.907       .  S
O133        C138   1.267       .  A
O134        V808   1.902       .  S
O134        C137   1.264       .  A
V135        O799   1.901   1_455  S
V135        O802   1.908   1_455  S
V135        V136   2.086       .  T
V136        O803   1.900   1_455  S
V136        O806   1.905   1_455  S
C137        N162   1.444       .  S
C138        N148   1.444       .  S
C139        N141   1.444       .  S
C140        N155   1.443       .  S
N141        C145   1.355       .  A
N141        C142   1.357       .  A
C142        C143   1.378       .  A
C143        C144   1.373       .  A
C143        H146   1.080       .  S
C144        C145   1.377       .  A
C144        H147   1.079       .  S
C145        C278   1.464       .  S
N148        C152   1.357       .  A
N148        C149   1.356       .  A
C149        C150   1.377   1_545  A
C150        C487   1.371       .  A
C150        H489   1.079       .  S
C151        C486   1.373       .  A
C151        C488   1.376       .  A
C151        H154   1.080       .  S
C152        C487   1.377   1_545  A
C152        C271   1.466       .  S
H153        C486   1.078       .  S
N155        C159   1.357       .  A
N155        C156   1.355       .  A
C156        C157   1.377   1_545  A
C157        C494   1.372       .  A
C157        H496   1.078       .  S
C158        C493   1.371       .  A
C158        C495   1.378       .  A
C158        H161   1.078       .  S
C159        C494   1.377   1_545  A
C159        C285   1.467       .  S
H160        C493   1.081       .  S
N162        C166   1.356       .  A
N162        C163   1.357       .  A
C163        C164   1.377       .  A
C164        C165   1.372       .  A
C164        H167   1.079       .  S
C165        C166   1.377       .  A
C165        H168   1.080       .  S
C166        C292   1.465       .  S
N169        C173   1.358       .  A
N169        C170   1.355   1_545  A
N169        C188   1.444       .  S
C170        C171   1.375       .  A
C170        C317   1.464   1_565  S
C171        C508   1.372       .  A
C171        H510   1.079       .  S
C172        C507   1.372       .  A
C172        C509   1.376       .  A
C172        H175   1.079       .  S
C173        C508   1.379   1_545  A
C173        C212   1.469       .  S
H174        C507   1.079       .  S
O176        V184   1.906       .  S
O176        C186   1.267       .  A
O177        V184   1.905       .  S
O177        C187   1.267       .  A
O178        V184   1.903       .  S
O178        C188   1.264       .  A
O179        V184   1.901       .  S
O179        C189   1.264       .  A
O180        V185   1.907       .  S
O180        C189   1.267       .  A
O181        V185   1.905       .  S
O181        C188   1.267       .  A
O182        V185   1.902       .  S
O182        C187   1.264       .  A
O183        V185   1.901       .  S
O183        C186   1.264       .  A
V184        V185   2.086       .  T
C186        N197   1.443       .  S
C187        N190   1.443       .  S
C189        N204   1.444       .  S
N190        C194   1.355       .  A
N190        C191   1.357   1_545  A
C191        C192   1.378       .  A
C191        C324   1.467   1_565  S
C192        C529   1.371       .  A
C192        H531   1.078       .  S
C193        C528   1.373       .  A
C193        C530   1.377       .  A
C193        H196   1.079       .  S
C194        C529   1.376   1_545  A
C194        C236   1.464       .  S
H195        C528   1.079       .  S
N197        C201   1.357       .  A
N197        C198   1.356       .  A
C198        C199   1.376       .  A
C198        C243   1.466       .  S
C199        C200   1.373       .  A
C199        H202   1.079       .  S
C200        C201   1.378       .  A
C200        H203   1.079       .  S
C201        C310   1.469       .  S
N204        C208   1.355       .  A
N204        C205   1.357       .  A
C205        C206   1.377       .  A
C205        C247   1.467       .  S
C206        C207   1.372       .  A
C206        H209   1.080       .  S
C207        C208   1.377       .  A
C207        H210   1.079       .  S
C208        C331   1.465       .  S
N211        C551   1.357       .  A
N211        C548   1.355       .  A
N211        C231   1.443       .  S
C212        N547   1.358       .  A
C212        C213   1.378       .  A
C213        C214   1.373       .  A
C213        H216   1.079       .  S
C214        C215   1.377       .  A
C214        H217   1.080       .  S
C215        N547   1.356       .  A
C215        C604   1.466       .  S
O218        V226   1.907       .  S
O218        C228   1.267       .  A
O219        V226   1.904       .  S
O219        C229   1.267       .  A
O220        V226   1.901       .  S
O220        C230   1.264       .  A
O221        V226   1.903       .  S
O221        C231   1.264       .  A
O222        V227   1.903       .  S
O222        C231   1.266       .  A
O223        V227   1.904       .  S
O223        C230   1.266       .  A
O224        V227   1.904       .  S
O224        C229   1.264       .  A
O225        V227   1.903       .  S
O225        C228   1.265       .  A
V226        V227   2.086       .  T
C228        N239   1.444       .  S
C229        N232   1.444       .  S
C230        N246   1.443       .  S
N232        C572   1.357       .  A
N232        C233   1.355       .  A
C233        C570   1.375       .  A
C233        C618   1.464       .  S
C234        C569   1.378       .  A
C234        C235   1.372       .  A
C234        H237   1.079       .  S
C235        C236   1.376       .  A
C235        H238   1.079       .  S
C236        N568   1.355       .  A
N239        C243   1.357       .  A
N239        C240   1.356       .  A
C240        C241   1.377       .  A
C240        C275   1.464       .  S
C241        C242   1.371       .  A
C241        H244   1.079       .  S
C242        C243   1.377       .  A
C242        H245   1.080       .  S
N246        C250   1.357       .  A
N246        C247   1.356       .  A
C247        C248   1.377       .  A
C248        C249   1.373       .  A
C248        H251   1.079       .  S
C249        C250   1.377       .  A
C249        H252   1.079       .  S
C250        C289   1.468       .  S
O253        V933   1.904       .  S
O253        C263   1.265       .  A
O254        V261   1.906       .  S
O254        C264   1.265       .  A
O255        V933   1.906       .  S
O255        C265   1.266       .  A
O256        V261   1.905       .  S
O256        C266   1.266       .  A
O257        V262   1.905       .  S
O257        C266   1.266       .  A
O258        V934   1.904       .  S
O258        C265   1.265       .  A
O259        V262   1.901       .  S
O259        C264   1.266       .  A
O260        V934   1.903       .  S
O260        C263   1.266       .  A
V261        O925   1.902   1_455  S
V261        O927   1.904   1_455  S
V261        V262   2.086       .  T
V262        O930   1.903   1_455  S
V262        O932   1.905   1_455  S
C263        N288   1.443       .  S
C264        N267   1.444       .  S
C265        N281   1.445       .  S
C266        N274   1.445       .  S
N267        C607   1.357       .  A
N267        C268   1.357       .  A
C268        C605   1.378       .  A
C268        C551   1.468       .  S
C269        C604   1.377       .  A
C269        C270   1.372       .  A
C269        H272   1.080       .  S
C270        C271   1.378       .  A
C270        H273   1.078       .  S
C271        N603   1.357       .  A
N274        C278   1.356       .  A
N274        C275   1.356       .  A
C275        C276   1.377       .  A
C276        C277   1.371       .  A
C276        H279   1.079       .  S
C277        C278   1.377       .  A
C277        H280   1.080       .  S
N281        C621   1.356       .  A
N281        C618   1.356       .  A
C282        N617   1.356       .  A
C282        C283   1.378       .  A
C282        C569   1.467       .  S
C283        C284   1.373       .  A
C283        H286   1.079       .  S
C284        C285   1.377       .  A
C284        H287   1.079       .  S
C285        N617   1.356       .  A
N288        C292   1.356       .  A
N288        C289   1.357       .  A
C289        C290   1.378       .  A
C290        C291   1.373       .  A
C290        H293   1.079       .  S
C291        C292   1.376       .  A
C291        H294   1.080       .  S
O295        V975   1.906       .  S
O295        C305   1.266       .  A
O296        V303   1.902       .  S
O296        C306   1.264       .  A
O297        V303   1.905       .  S
O297        C307   1.267       .  A
O298        V975   1.900       .  S
O298        C308   1.265       .  A
O299        V976   1.909       .  S
O299        C308   1.266       .  A
O300        V304   1.901       .  S
O300        C307   1.264       .  A
O301        V304   1.905       .  S
O301        C306   1.267       .  A
O302        V976   1.902       .  S
O302        C305   1.265       .  A
V303        O967   1.899   1_455  S
V303        O970   1.909   1_455  S
V303        V304   2.086       .  T
V304        O971   1.899   1_455  S
V304        O974   1.908   1_455  S
C305        N330   1.444       .  S
C306        N316   1.444       .  S
C307        N309   1.443       .  S
C308        N323   1.444       .  S
N309        C313   1.356       .  A
N309        C310   1.357       .  A
C310        C311   1.378       .  A
C311        C312   1.373       .  A
C311        H314   1.079       .  S
C312        C313   1.376       .  A
C312        H315   1.079       .  S
N316        C320   1.357       .  A
N316        C317   1.356       .  A
C317        C318   1.376   1_545  A
C318        C655   1.371       .  A
C318        H657   1.081       .  S
C319        C654   1.373       .  A
C319        C656   1.376       .  A
C319        H322   1.079       .  S
C320        C655   1.379   1_545  A
H321        C654   1.079       .  S
N323        C327   1.358       .  A
N323        C324   1.357       .  A
C324        C325   1.378   1_545  A
C325        C662   1.372       .  A
C325        H664   1.078       .  S
C326        C661   1.372       .  A
C326        C663   1.377       .  A
C326        H329   1.078       .  S
C327        C662   1.377   1_545  A
H328        C661   1.079       .  S
N330        C334   1.356       .  A
N330        C331   1.356       .  A
C331        C332   1.377       .  A
C332        C333   1.371       .  A
C332        H335   1.079       .  S
C333        C334   1.377       .  A
C333        H336   1.079       .  S
N337        C341   1.355       .  A
N337        C338   1.358       .  A
N337        C356   1.443       .  S
C338        C339   1.378       .  A
C338        C485   1.469       .  S
C340        H343   1.079       .  S
C341        C380   1.464       .  S
O344        V352   1.902       .  S
O344        C354   1.264       .  A
O345        V352   1.900       .  S
O345        C355   1.264       .  A
O346        V352   1.906       .  S
O346        C356   1.267       .  A
O347        V352   1.908       .  S
O347        C357   1.267       .  A
O348        V353   1.899       .  S
O348        C357   1.264       .  A
O349        V353   1.902       .  S
O349        C356   1.264       .  A
O350        V353   1.905       .  S
O350        C355   1.267       .  A
O351        V353   1.907       .  S
O351        C354   1.267       .  A
V352        V353   2.086       .  T
C354        N365   1.444       .  S
C355        N358   1.443       .  S
C357        N372   1.443       .  S
N358        C362   1.357       .  A
N358        C359   1.356       .  A
C359        C360   1.376       .  A
C359        C492   1.467       .  S
C361        H364   1.079       .  S
C362        C404   1.469       .  S
N365        C369   1.355       .  A
N365        C366   1.357       .  A
C366        C367   1.378       .  A
C366        C411   1.466       .  S
C367        C368   1.371       .  A
C367        H370   1.079       .  S
C368        C369   1.376       .  A
C368        H371   1.079       .  S
C369        C478   1.463       .  S
N372        C376   1.357       .  A
N372        C373   1.356       .  A
C373        C374   1.377       .  A
C373        C415   1.466       .  S
C374        C375   1.372       .  A
C374        H377   1.078       .  S
C375        C376   1.377       .  A
C375        H378   1.079       .  S
C376        C499   1.467       .  S
N379        C399   1.443   1_545  S
C380        C381   1.377       .  A
C381        C382   1.371       .  A
C381        H384   1.079       .  S
C382        C383   1.378       .  A
C382        H385   1.079       .  S
O386        V394   1.899       .  S
O386        C396   1.264       .  A
O387        V394   1.901       .  S
O387        C397   1.264       .  A
O388        V394   1.907       .  S
O388        C398   1.267       .  A
O389        V394   1.905       .  S
O389        C399   1.266       .  A
O390        V395   1.902       .  S
O390        C399   1.264       .  A
O391        V395   1.902       .  S
O391        C398   1.265       .  A
O392        V395   1.906       .  S
O392        C397   1.267       .  A
O393        V395   1.908       .  S
O393        C396   1.267       .  A
V394        V395   2.086       .  T
C396        N407   1.443       .  S
C397        N400   1.443   1_565  S
C398        N414   1.444       .  S
N400        C401   1.357       .  A
C402        C403   1.373       .  A
C402        H405   1.079       .  S
C403        C404   1.378       .  A
C403        H406   1.079       .  S
N407        C411   1.356       .  A
N407        C408   1.357       .  A
C408        C409   1.377       .  A
C408        C443   1.468       .  S
C409        C410   1.373       .  A
C409        H412   1.080       .  S
C410        C411   1.377       .  A
C410        H413   1.079       .  S
N414        C418   1.356       .  A
N414        C415   1.356       .  A
C415        C416   1.378       .  A
C416        C417   1.372       .  A
C416        H419   1.079       .  S
C417        C418   1.377       .  A
C417        H420   1.080       .  S
C418        C457   1.465       .  S
O421       V1101   1.902       .  S
O421        C431   1.266       .  A
O422        V429   1.901       .  S
O422        C432   1.265       .  A
O423       V1101   1.904       .  S
O423        C433   1.265       .  A
O424        V429   1.906       .  S
O424        C434   1.266       .  A
O425        V430   1.902       .  S
O425        C434   1.265       .  A
O426       V1102   1.903       .  S
O426        C433   1.266       .  A
O427        V430   1.907       .  S
O427        C432   1.265       .  A
O428       V1102   1.905       .  S
O428        C431   1.265       .  A
V429       O1093   1.904   1_455  S
V429       O1095   1.906   1_455  S
V429        V430   2.086       .  T
V430       O1098   1.904   1_455  S
V430       O1100   1.903   1_455  S
C431        N456   1.443       .  S
C432        N435   1.444   1_565  S
C433        N449   1.444   1_565  S
C434        N442   1.444       .  S
N435        C436   1.356       .  A
C437        C438   1.372       .  A
C437        H440   1.079       .  S
C438        C439   1.377       .  A
C438        H441   1.080       .  S
C439        C656   1.465   1_554  S
N442        C446   1.357       .  A
N442        C443   1.357       .  A
C443        C444   1.378       .  A
C444        C445   1.373       .  A
C444        H447   1.079       .  S
C445        C446   1.376       .  A
C445        H448   1.079       .  S
C446        C649   1.467   1_554  S
C450        C451   1.377       .  A
C451        C452   1.372       .  A
C451        H454   1.079       .  S
C452        C453   1.377       .  A
C452        H455   1.079       .  S
C453        C663   1.465   1_554  S
N456        C460   1.357       .  A
N456        C457   1.355       .  A
C457        C458   1.376       .  A
C458        C459   1.372       .  A
C458        H461   1.079       .  S
C459        C460   1.379       .  A
C459        H462   1.079       .  S
C460        C670   1.469   1_554  S
O463       V1143   1.899       .  S
O463        C473   1.265       .  A
O464        V471   1.904       .  S
O464        C474   1.266       .  A
O465        V471   1.903       .  S
O465        C475   1.264       .  A
O466       V1143   1.909       .  S
O466        C476   1.266       .  A
O467       V1144   1.899       .  S
O467        C476   1.264       .  A
O468        V472   1.904       .  S
O468        C475   1.267       .  A
O469        V472   1.902       .  S
O469        C474   1.264       .  A
O470       V1144   1.908       .  S
O470        C473   1.266       .  A
V471       O1135   1.906   1_455  S
V471       O1138   1.900   1_455  S
V471        V472   2.086       .  T
V472       O1139   1.909   1_455  S
V472       O1142   1.902   1_455  S
C473        N498   1.444       .  S
C474        N484   1.443       .  S
C475        N477   1.443       .  S
C476        N491   1.444       .  S
N477        C481   1.357       .  A
N477        C478   1.355       .  A
C478        C479   1.376       .  A
C479        C480   1.372       .  A
C479        H482   1.080       .  S
C480        C481   1.378       .  A
C480        H483   1.079       .  S
C481        C614   1.467       .  S
N484        C488   1.356       .  A
N484        C485   1.357       .  A
C485        C486   1.378       .  A
C487        H490   1.079       .  S
C488        C607   1.467       .  S
N491        C495   1.356       .  A
N491        C492   1.357       .  A
C492        C493   1.376       .  A
C494        H497   1.079       .  S
C495        C621   1.466       .  S
N498        C502   1.357       .  A
N498        C499   1.357       .  A
C499        C500   1.378       .  A
C500        C501   1.373       .  A
C500        H503   1.078       .  S
C501        C502   1.376       .  A
C501        H504   1.079       .  S
C502        C628   1.467       .  S
N505        C509   1.355       .  A
N505        C506   1.357       .  A
N505        C524   1.443       .  S
C506        C507   1.378       .  A
C506        C653   1.468       .  S
C508        H511   1.079       .  S
C509        C548   1.464       .  S
O512        V520   1.898       .  S
O512        C522   1.264       .  A
O513        V520   1.898       .  S
O513        C523   1.264       .  A
O514        V520   1.906       .  S
O514        C524   1.267       .  A
O515        V520   1.910       .  S
O515        C525   1.267       .  A
O516        V521   1.898       .  S
O516        C525   1.264       .  A
O517        V521   1.901       .  S
O517        C524   1.264       .  A
O518        V521   1.907       .  S
O518        C523   1.267       .  A
O519        V521   1.907       .  S
O519        C522   1.267       .  A
V520        V521   2.086       .  T
C522        N533   1.442       .  S
C523        N526   1.443       .  S
C525        N540   1.444       .  S
N526        C530   1.357       .  A
N526        C527   1.356       .  A
C527        C528   1.377       .  A
C527        C660   1.467       .  S
C529        H532   1.080       .  S
C530        C572   1.468       .  S
N533        C537   1.355       .  A
N533        C534   1.357       .  A
C534        C535   1.377       .  A
C534        C579   1.467       .  S
C535        C536   1.371       .  A
C535        H538   1.079       .  S
C536        C537   1.376       .  A
C536        H539   1.078       .  S
C537        C646   1.465       .  S
N540        C544   1.357       .  A
N540        C541   1.356       .  A
C541        C542   1.378       .  A
C541        C583   1.466       .  S
C542        C543   1.372       .  A
C542        H545   1.078       .  S
C543        C544   1.376       .  A
C543        H546   1.080       .  S
C544        C667   1.468       .  S
N547        C567   1.443   1_545  S
C548        C549   1.375       .  A
C549        C550   1.372       .  A
C549        H552   1.080       .  S
C550        C551   1.379       .  A
C550        H553   1.078       .  S
O554        V562   1.899       .  S
O554        C564   1.264       .  A
O555        V562   1.902       .  S
O555        C565   1.264       .  A
O556        V562   1.908       .  S
O556        C566   1.267       .  A
O557        V562   1.907       .  S
O557        C567   1.267       .  A
O558        V563   1.900       .  S
O558        C567   1.264       .  A
O559        V563   1.899       .  S
O559        C566   1.264       .  A
O560        V563   1.906       .  S
O560        C565   1.267       .  A
O561        V563   1.908       .  S
O561        C564   1.266       .  A
V562        V563   2.086       .  T
C564        N575   1.443       .  S
C565        N568   1.444   1_565  S
C566        N582   1.443       .  S
N568        C569   1.357       .  A
C570        C571   1.372       .  A
C570        H573   1.079       .  S
C571        C572   1.379       .  A
C571        H574   1.079       .  S
N575        C579   1.356       .  A
N575        C576   1.357       .  A
C576        C577   1.377       .  A
C576        C611   1.467       .  S
C577        C578   1.373       .  A
C577        H580   1.081       .  S
C578        C579   1.378       .  A
C578        H581   1.078       .  S
N582        C586   1.356       .  A
N582        C583   1.357       .  A
C583        C584   1.377       .  A
C584        C585   1.371       .  A
C584        H587   1.079       .  S
C585        C586   1.377       .  A
C585        H588   1.079       .  S
C586        C625   1.464       .  S
O589       V1269   1.904       .  S
O589        C599   1.266       .  A
O590        V597   1.903       .  S
O590        C600   1.265       .  A
O591       V1269   1.902       .  S
O591        C601   1.265       .  A
O592        V597   1.903       .  S
O592        C602   1.266       .  A
O593        V598   1.904       .  S
O593        C602   1.265       .  A
O594       V1270   1.904       .  S
O594        C601   1.265       .  A
O595        V598   1.907       .  S
O595        C600   1.266       .  A
O596       V1270   1.905       .  S
O596        C599   1.265       .  A
V597       O1261   1.904   1_455  S
V597       O1263   1.905   1_455  S
V597        V598   2.086       .  T
V598       O1266   1.903   1_455  S
V598       O1268   1.905   1_455  S
C599        N624   1.444       .  S
C600        N603   1.444   1_565  S
C601        N617   1.443   1_565  S
C602        N610   1.444       .  S
N603        C604   1.357       .  A
C605        C606   1.372       .  A
C605        H608   1.078       .  S
C606        C607   1.377       .  A
C606        H609   1.081       .  S
N610        C614   1.357       .  A
N610        C611   1.357       .  A
C611        C612   1.377       .  A
C612        C613   1.373       .  A
C612        H615   1.081       .  S
C613        C614   1.379       .  A
C613        H616   1.079       .  S
C618        C619   1.377       .  A
C619        C620   1.371       .  A
C619        H622   1.080       .  S
C620        C621   1.378       .  A
C620        H623   1.079       .  S
N624        C628   1.357       .  A
N624        C625   1.356       .  A
C625        C626   1.377       .  A
C626        C627   1.372       .  A
C626        H629   1.079       .  S
C627        C628   1.378       .  A
C627        H630   1.080       .  S
O631       V1311   1.901       .  S
O631        C641   1.264       .  A
O632        V639   1.905       .  S
O632        C642   1.266       .  A
O633        V639   1.903       .  S
O633        C643   1.265       .  A
O634       V1311   1.908       .  S
O634        C644   1.267       .  A
O635       V1312   1.900       .  S
O635        C644   1.264       .  A
O636        V640   1.906       .  S
O636        C643   1.266       .  A
O637        V640   1.901       .  S
O637        C642   1.264       .  A
O638       V1312   1.905       .  S
O638        C641   1.266       .  A
V639       O1303   1.906   1_455  S
V639       O1306   1.901   1_455  S
V639        V640   2.086       .  T
V640       O1307   1.906   1_455  S
V640       O1310   1.902   1_455  S
C641        N666   1.443       .  S
C642        N652   1.443       .  S
C643        N645   1.444       .  S
C644        N659   1.444       .  S
N645        C649   1.357       .  A
N645        C646   1.356       .  A
C646        C647   1.377       .  A
C647        C648   1.372       .  A
C647        H650   1.079       .  S
C648        C649   1.378       .  A
C648        H651   1.080       .  S
N652        C656   1.356       .  A
N652        C653   1.357       .  A
C653        C654   1.378       .  A
C655        H658   1.079       .  S
N659        C663   1.356       .  A
N659        C660   1.357       .  A
C660        C661   1.377       .  A
C662        H665   1.081       .  S
N666        C670   1.357       .  A
N666        C667   1.356       .  A
C667        C668   1.377       .  A
C668        C669   1.373       .  A
C668        H671   1.080       .  S
C669        C670   1.378       .  A
C669        H672   1.079       .  S
N673        C677   1.355       .  A
N673        C674   1.357       .  A
N673        C692   1.443       .  S
C674        C675   1.378   1_545  A
C674        C821   1.468       .  S
C675       C1012   1.372       .  A
C675       H1014   1.079       .  S
C676       C1011   1.372       .  A
C676       C1013   1.379       .  A
C676        H679   1.079       .  S
C677       C1012   1.376   1_545  A
C677        C716   1.464       .  S
H678       C1011   1.079       .  S
O680        V688   1.898       .  S
O680        C690   1.264       .  A
O681        V688   1.898       .  S
O681        C691   1.264       .  A
O682        V688   1.906       .  S
O682        C692   1.267       .  A
O683        V688   1.910       .  S
O683        C693   1.267       .  A
O684        V689   1.898       .  S
O684        C693   1.264       .  A
O685        V689   1.901       .  S
O685        C692   1.264       .  A
O686        V689   1.907       .  S
O686        C691   1.267       .  A
O687        V689   1.907       .  S
O687        C690   1.267       .  A
V688        V689   2.086       .  T
C690        N701   1.442       .  S
C691        N694   1.443       .  S
C693        N708   1.444       .  S
N694        C698   1.357       .  A
N694        C695   1.356       .  A
C695        C696   1.377   1_545  A
C695        C828   1.467       .  S
C696       C1033   1.373       .  A
C696       H1035   1.079       .  S
C697       C1032   1.371       .  A
C697       C1034   1.376       .  A
C697        H700   1.080       .  S
C698       C1033   1.377   1_545  A
C698        C740   1.468       .  S
H699       C1032   1.078       .  S
N701        C705   1.355       .  A
N701        C702   1.357       .  A
C702        C703   1.377       .  A
C702        C747   1.467       .  S
C703        C704   1.371       .  A
C703        H706   1.079       .  S
C704        C705   1.376       .  A
C704        H707   1.078       .  S
C705        C814   1.465       .  S
N708        C712   1.357       .  A
N708        C709   1.356       .  A
C709        C710   1.378       .  A
C709        C751   1.466       .  S
C710        C711   1.372       .  A
C710        H713   1.078       .  S
C711        C712   1.376       .  A
C711        H714   1.080       .  S
C712        C835   1.468       .  S
N715       C1055   1.356       .  A
N715       C1052   1.358       .  A
N715        C735   1.443       .  S
C716       N1051   1.355       .  A
C716        C717   1.375       .  A
C717        C718   1.372       .  A
C717        H720   1.080       .  S
C718        C719   1.379       .  A
C718        H721   1.078       .  S
C719       N1051   1.357       .  A
C719       C1108   1.468       .  S
O722        V730   1.899       .  S
O722        C732   1.264       .  A
O723        V730   1.902       .  S
O723        C733   1.264       .  A
O724        V730   1.908       .  S
O724        C734   1.267       .  A
O725        V730   1.907       .  S
O725        C735   1.267       .  A
O726        V731   1.900       .  S
O726        C735   1.264       .  A
O727        V731   1.899       .  S
O727        C734   1.264       .  A
O728        V731   1.906       .  S
O728        C733   1.267       .  A
O729        V731   1.908       .  S
O729        C732   1.266       .  A
V730        V731   2.086       .  T
C732        N743   1.443       .  S
C733        N736   1.444       .  S
C734        N750   1.443       .  S
N736       C1076   1.355       .  A
N736        C737   1.357       .  A
C737       C1074   1.378       .  A
C737       C1122   1.467       .  S
C738       C1073   1.375       .  A
C738        C739   1.372       .  A
C738        H741   1.079       .  S
C739        C740   1.379       .  A
C739        H742   1.079       .  S
C740       N1072   1.357       .  A
N743        C747   1.356       .  A
N743        C744   1.357       .  A
C744        C745   1.377       .  A
C744        C779   1.467       .  S
C745        C746   1.373       .  A
C745        H748   1.081       .  S
C746        C747   1.378       .  A
C746        H749   1.078       .  S
N750        C754   1.356       .  A
N750        C751   1.357       .  A
C751        C752   1.377       .  A
C752        C753   1.371       .  A
C752        H755   1.079       .  S
C753        C754   1.377       .  A
C753        H756   1.079       .  S
C754        C793   1.464       .  S
O757        C767   1.266       .  A
O758        V765   1.903       .  S
O758        C768   1.265       .  A
O759        C769   1.265       .  A
O760        V765   1.903       .  S
O760        C770   1.266       .  A
O761        V766   1.904       .  S
O761        C770   1.265       .  A
O762        C769   1.265       .  A
O763        V766   1.907       .  S
O763        C768   1.266       .  A
O764        C767   1.265       .  A
V765        V766   2.086       .  T
C767        N792   1.444       .  S
C768        N771   1.444       .  S
C769        N785   1.443       .  S
C770        N778   1.444       .  S
N771       C1111   1.357       .  A
N771        C772   1.357       .  A
C772       C1109   1.377       .  A
C772       C1055   1.466       .  S
C773       C1108   1.378       .  A
C773        C774   1.372       .  A
C773        H776   1.078       .  S
C774        C775   1.377       .  A
C774        H777   1.081       .  S
C775       N1107   1.357       .  A
C775        C992   1.467   1_554  S
N778        C782   1.357       .  A
N778        C779   1.357       .  A
C779        C780   1.377       .  A
C780        C781   1.373       .  A
C780        H783   1.081       .  S
C781        C782   1.379       .  A
C781        H784   1.079       .  S
C782        C985   1.467   1_554  S
N785       C1125   1.356       .  A
N785       C1122   1.356       .  A
C786       N1121   1.356       .  A
C786        C787   1.377       .  A
C786       C1073   1.464       .  S
C787        C788   1.371       .  A
C787        H790   1.080       .  S
C788        C789   1.378       .  A
C788        H791   1.079       .  S
C789       N1121   1.356       .  A
C789        C999   1.466   1_554  S
N792        C796   1.357       .  A
N792        C793   1.356       .  A
C793        C794   1.377       .  A
C794        C795   1.372       .  A
C794        H797   1.079       .  S
C795        C796   1.378       .  A
C795        H798   1.080       .  S
C796       C1006   1.467   1_554  S
O799        C809   1.264       .  A
O800        V807   1.905       .  S
O800        C810   1.266       .  A
O801        V807   1.903       .  S
O801        C811   1.265       .  A
O802        C812   1.267       .  A
O803        C812   1.264       .  A
O804        V808   1.906       .  S
O804        C811   1.266       .  A
O805        V808   1.901       .  S
O805        C810   1.264       .  A
O806        C809   1.266       .  A
V807        V808   2.086       .  T
C809        N834   1.443       .  S
C810        N820   1.443       .  S
C811        N813   1.444       .  S
C812        N827   1.444       .  S
N813        C817   1.357       .  A
N813        C814   1.356       .  A
C814        C815   1.377       .  A
C815        C816   1.372       .  A
C815        H818   1.079       .  S
C816        C817   1.378       .  A
C816        H819   1.080       .  S
C817        C950   1.467       .  S
N820        C824   1.356       .  A
N820        C821   1.357       .  A
C821        C822   1.378   1_545  A
C822       C1159   1.373       .  A
C822       H1161   1.079       .  S
C823       C1158   1.371       .  A
C823       C1160   1.379       .  A
C823        H826   1.079       .  S
C824       C1159   1.376   1_545  A
C824        C943   1.465       .  S
H825       C1158   1.081       .  S
N827        C831   1.356       .  A
N827        C828   1.357       .  A
C828        C829   1.377   1_545  A
C829       C1166   1.372       .  A
C829       H1168   1.080       .  S
C830       C1165   1.372       .  A
C830       C1167   1.377       .  A
C830        H833   1.081       .  S
C831       C1166   1.377   1_545  A
C831        C957   1.465       .  S
H832       C1165   1.078       .  S
N834        C838   1.357       .  A
N834        C835   1.356       .  A
C835        C836   1.377       .  A
C836        C837   1.373       .  A
C836        H839   1.080       .  S
C837        C838   1.378       .  A
C837        H840   1.079       .  S
C838        C964   1.469       .  S
N841        C845   1.355       .  A
N841        C842   1.358       .  A
N841        C860   1.443       .  S
C842        C843   1.378   1_545  A
C842        C989   1.469       .  S
C843       C1180   1.372       .  A
C843       H1182   1.079       .  S
C844       C1179   1.372       .  A
C844       C1181   1.378       .  A
C844        H847   1.079       .  S
C845       C1180   1.376   1_545  A
C845        C884   1.464       .  S
H846       C1179   1.079       .  S
O848        V856   1.902       .  S
O848        C858   1.264       .  A
O849        V856   1.900       .  S
O849        C859   1.264       .  A
O850        V856   1.906       .  S
O850        C860   1.267       .  A
O851        V856   1.908       .  S
O851        C861   1.267       .  A
O852        V857   1.899       .  S
O852        C861   1.264       .  A
O853        V857   1.902       .  S
O853        C860   1.264       .  A
O854        V857   1.905       .  S
O854        C859   1.267       .  A
O855        V857   1.907       .  S
O855        C858   1.267       .  A
V856        V857   2.086       .  T
C858        N869   1.444       .  S
C859        N862   1.443       .  S
C861        N876   1.443       .  S
N862        C866   1.357       .  A
N862        C863   1.356       .  A
C863        C864   1.376   1_545  A
C863        C996   1.467       .  S
C864       C1201   1.374       .  A
C864       H1203   1.079       .  S
C865       C1200   1.372       .  A
C865       C1202   1.377       .  A
C865        H868   1.079       .  S
C866       C1201   1.378   1_545  A
C866        C908   1.469       .  S
H867       C1200   1.079       .  S
N869        C873   1.355       .  A
N869        C870   1.357       .  A
C870        C871   1.378       .  A
C870        C915   1.466       .  S
C871        C872   1.371       .  A
C871        H874   1.079       .  S
C872        C873   1.376       .  A
C872        H875   1.079       .  S
C873        C982   1.463       .  S
N876        C880   1.357       .  A
N876        C877   1.356       .  A
C877        C878   1.377       .  A
C877        C919   1.466       .  S
C878        C879   1.372       .  A
C878        H881   1.078       .  S
C879        C880   1.377       .  A
C879        H882   1.079       .  S
C880       C1003   1.467       .  S
N883       C1223   1.356       .  A
N883       C1220   1.357       .  A
N883        C903   1.443       .  S
C884       N1219   1.356       .  A
C884        C885   1.377       .  A
C885        C886   1.371       .  A
C885        H888   1.079       .  S
C886        C887   1.378       .  A
C886        H889   1.079       .  S
C887       N1219   1.356       .  A
C887       C1276   1.465       .  S
O890        V898   1.899       .  S
O890        C900   1.264       .  A
O891        V898   1.901       .  S
O891        C901   1.264       .  A
O892        V898   1.907       .  S
O892        C902   1.267       .  A
O893        V898   1.905       .  S
O893        C903   1.266       .  A
O894        V899   1.902       .  S
O894        C903   1.264       .  A
O895        V899   1.902       .  S
O895        C902   1.265       .  A
O896        V899   1.906       .  S
O896        C901   1.267       .  A
O897        V899   1.908       .  S
O897        C900   1.267       .  A
V898        V899   2.086       .  T
C900        N911   1.443       .  S
C901        N904   1.443       .  S
C902        N918   1.444       .  S
N904       C1244   1.355       .  A
N904        C905   1.357       .  A
C905       C1242   1.378       .  A
C905       C1290   1.468       .  S
C906       C1241   1.377       .  A
C906        C907   1.373       .  A
C906        H909   1.079       .  S
C907        C908   1.378       .  A
C907        H910   1.079       .  S
C908       N1240   1.357       .  A
N911        C915   1.356       .  A
N911        C912   1.357       .  A
C912        C913   1.377       .  A
C912        C947   1.468       .  S
C913        C914   1.373       .  A
C913        H916   1.080       .  S
C914        C915   1.377       .  A
C914        H917   1.079       .  S
N918        C922   1.356       .  A
N918        C919   1.356       .  A
C919        C920   1.378       .  A
C920        C921   1.372       .  A
C920        H923   1.079       .  S
C921        C922   1.377       .  A
C921        H924   1.080       .  S
C922        C961   1.465       .  S
O925        C935   1.266       .  A
O926        V933   1.901       .  S
O926        C936   1.265       .  A
O927        C937   1.265       .  A
O928        V933   1.906       .  S
O928        C938   1.266       .  A
O929        V934   1.902       .  S
O929        C938   1.265       .  A
O930        C937   1.266       .  A
O931        V934   1.907       .  S
O931        C936   1.265       .  A
O932        C935   1.265       .  A
V933        V934   2.086       .  T
C935        N960   1.443       .  S
C936        N939   1.444       .  S
C937        N953   1.444       .  S
C938        N946   1.444       .  S
N939       C1279   1.357       .  A
N939        C940   1.356       .  A
C940       C1277   1.376       .  A
C940       C1223   1.466       .  S
C941       C1276   1.377       .  A
C941        C942   1.372       .  A
C941        H944   1.079       .  S
C942        C943   1.377       .  A
C942        H945   1.080       .  S
C943       N1275   1.356       .  A
N946        C950   1.357       .  A
N946        C947   1.357       .  A
C947        C948   1.378       .  A
C948        C949   1.373       .  A
C948        H951   1.079       .  S
C949        C950   1.376       .  A
C949        H952   1.079       .  S
N953       C1293   1.357       .  A
N953       C1290   1.357       .  A
C954       N1289   1.356       .  A
C954        C955   1.377       .  A
C954       C1241   1.466       .  S
C955        C956   1.372       .  A
C955        H958   1.079       .  S
C956        C957   1.377       .  A
C956        H959   1.079       .  S
C957       N1289   1.356       .  A
N960        C964   1.357       .  A
N960        C961   1.355       .  A
C961        C962   1.376       .  A
C962        C963   1.372       .  A
C962        H965   1.080       .  S
C963        C964   1.379       .  A
C963        H966   1.079       .  S
O967        C977   1.265       .  A
O968        V975   1.904       .  S
O968        C978   1.266       .  A
O969        V975   1.903       .  S
O969        C979   1.264       .  A
O970        C980   1.266       .  A
O971        C980   1.264       .  A
O972        V976   1.904       .  S
O972        C979   1.267       .  A
O973        V976   1.902       .  S
O973        C978   1.264       .  A
O974        C977   1.266       .  A
V975        V976   2.086       .  T
C977       N1002   1.444       .  S
C978        N988   1.443       .  S
C979        N981   1.443       .  S
C980        N995   1.444       .  S
N981        C985   1.357       .  A
N981        C982   1.355       .  A
C982        C983   1.376       .  A
C983        C984   1.372       .  A
C983        H986   1.080       .  S
C984        C985   1.378       .  A
C984        H987   1.079       .  S
N988        C992   1.356       .  A
N988        C989   1.357       .  A
C989        C990   1.378   1_545  A
C990       C1327   1.373       .  A
C990       H1329   1.078       .  S
C991       C1326   1.371       .  A
C991       C1328   1.377       .  A
C991        H994   1.079       .  S
C992       C1327   1.376   1_545  A
H993       C1326   1.079       .  S
N995        C999   1.356       .  A
N995        C996   1.357       .  A
C996        C997   1.376   1_545  A
C997       C1334   1.371       .  A
C997       H1336   1.081       .  S
C998       C1333   1.372       .  A
C998       C1335   1.377       .  A
C998       H1001   1.079       .  S
C999       C1334   1.378   1_545  A
H1000      C1333   1.078       .  S
N1002      C1006   1.357       .  A
N1002      C1003   1.357       .  A
C1003      C1004   1.378       .  A
C1004      C1005   1.373       .  A
C1004      H1007   1.078       .  S
C1005      C1006   1.376       .  A
C1005      H1008   1.079       .  S
N1009      C1013   1.358       .  A
N1009      C1010   1.355       .  A
N1009      C1028   1.444       .  S
C1010      C1011   1.375       .  A
C1010      C1157   1.464       .  S
C1012      H1015   1.079       .  S
C1013      C1052   1.469       .  S
O1016      V1024   1.906       .  S
O1016      C1026   1.267       .  A
O1017      V1024   1.905       .  S
O1017      C1027   1.267       .  A
O1018      V1024   1.903       .  S
O1018      C1028   1.264       .  A
O1019      V1024   1.901       .  S
O1019      C1029   1.264       .  A
O1020      V1025   1.907       .  S
O1020      C1029   1.267       .  A
O1021      V1025   1.905       .  S
O1021      C1028   1.267       .  A
O1022      V1025   1.902       .  S
O1022      C1027   1.264       .  A
O1023      V1025   1.901       .  S
O1023      C1026   1.264       .  A
V1024      V1025   2.086       .  T
C1026      N1037   1.443       .  S
C1027      N1030   1.443       .  S
C1029      N1044   1.444       .  S
N1030      C1034   1.355       .  A
N1030      C1031   1.357       .  A
C1031      C1032   1.378       .  A
C1031      C1164   1.467       .  S
C1033      H1036   1.079       .  S
C1034      C1076   1.464       .  S
N1037      C1041   1.357       .  A
N1037      C1038   1.356       .  A
C1038      C1039   1.376       .  A
C1038      C1083   1.466       .  S
C1039      C1040   1.373       .  A
C1039      H1042   1.079       .  S
C1040      C1041   1.378       .  A
C1040      H1043   1.079       .  S
C1041      C1150   1.469       .  S
N1044      C1048   1.355       .  A
N1044      C1045   1.357       .  A
C1045      C1046   1.377       .  A
C1045      C1087   1.467       .  S
C1046      C1047   1.372       .  A
C1046      H1049   1.080       .  S
C1047      C1048   1.377       .  A
C1047      H1050   1.079       .  S
C1048      C1171   1.465       .  S
N1051      C1071   1.443   1_545  S
C1052      C1053   1.378       .  A
C1053      C1054   1.373       .  A
C1053      H1056   1.079       .  S
C1054      C1055   1.377       .  A
C1054      H1057   1.080       .  S
O1058      V1066   1.907       .  S
O1058      C1068   1.267       .  A
O1059      V1066   1.904       .  S
O1059      C1069   1.267       .  A
O1060      V1066   1.901       .  S
O1060      C1070   1.264       .  A
O1061      V1066   1.903       .  S
O1061      C1071   1.264       .  A
O1062      V1067   1.903       .  S
O1062      C1071   1.266       .  A
O1063      V1067   1.904       .  S
O1063      C1070   1.266       .  A
O1064      V1067   1.904       .  S
O1064      C1069   1.264       .  A
O1065      V1067   1.903       .  S
O1065      C1068   1.265       .  A
V1066      V1067   2.086       .  T
C1068      N1079   1.444       .  S
C1069      N1072   1.444   1_565  S
C1070      N1086   1.443       .  S
N1072      C1073   1.355       .  A
C1074      C1075   1.372       .  A
C1074      H1077   1.079       .  S
C1075      C1076   1.376       .  A
C1075      H1078   1.079       .  S
N1079      C1083   1.357       .  A
N1079      C1080   1.356       .  A
C1080      C1081   1.377       .  A
C1080      C1115   1.464       .  S
C1081      C1082   1.371       .  A
C1081      H1084   1.079       .  S
C1082      C1083   1.377       .  A
C1082      H1085   1.080       .  S
N1086      C1090   1.357       .  A
N1086      C1087   1.356       .  A
C1087      C1088   1.377       .  A
C1088      C1089   1.373       .  A
C1088      H1091   1.079       .  S
C1089      C1090   1.377       .  A
C1089      H1092   1.079       .  S
C1090      C1129   1.468       .  S
O1093      C1103   1.265       .  A
O1094      V1101   1.906       .  S
O1094      C1104   1.265       .  A
O1095      C1105   1.266       .  A
O1096      V1101   1.905       .  S
O1096      C1106   1.266       .  A
O1097      V1102   1.905       .  S
O1097      C1106   1.266       .  A
O1098      C1105   1.265       .  A
O1099      V1102   1.901       .  S
O1099      C1104   1.266       .  A
O1100      C1103   1.266       .  A
V1101      V1102   2.086       .  T
C1103      N1128   1.443       .  S
C1104      N1107   1.444   1_565  S
C1105      N1121   1.445   1_565  S
C1106      N1114   1.445       .  S
N1107      C1108   1.357       .  A
C1109      C1110   1.372       .  A
C1109      H1112   1.080       .  S
C1110      C1111   1.378       .  A
C1110      H1113   1.078       .  S
C1111      C1328   1.466   1_554  S
N1114      C1118   1.356       .  A
N1114      C1115   1.356       .  A
C1115      C1116   1.377       .  A
C1116      C1117   1.371       .  A
C1116      H1119   1.079       .  S
C1117      C1118   1.377       .  A
C1117      H1120   1.079       .  S
C1118      C1321   1.464   1_554  S
C1122      C1123   1.378       .  A
C1123      C1124   1.373       .  A
C1123      H1126   1.079       .  S
C1124      C1125   1.377       .  A
C1124      H1127   1.080       .  S
C1125      C1335   1.467   1_554  S
N1128      C1132   1.356       .  A
N1128      C1129   1.357       .  A
C1129      C1130   1.378       .  A
C1130      C1131   1.373       .  A
C1130      H1133   1.079       .  S
C1131      C1132   1.376       .  A
C1131      H1134   1.080       .  S
C1132      C1342   1.465   1_554  S
O1135      C1145   1.266       .  A
O1136      V1143   1.902       .  S
O1136      C1146   1.264       .  A
O1137      V1143   1.905       .  S
O1137      C1147   1.267       .  A
O1138      C1148   1.265       .  A
O1139      C1148   1.266       .  A
O1140      V1144   1.901       .  S
O1140      C1147   1.264       .  A
O1141      V1144   1.905       .  S
O1141      C1146   1.267       .  A
O1142      C1145   1.265       .  A
V1143      V1144   2.086       .  T
C1145      N1170   1.444       .  S
C1146      N1156   1.444       .  S
C1147      N1149   1.443       .  S
C1148      N1163   1.444       .  S
N1149      C1153   1.356       .  A
N1149      C1150   1.357       .  A
C1150      C1151   1.378       .  A
C1151      C1152   1.373       .  A
C1151      H1154   1.079       .  S
C1152      C1153   1.376       .  A
C1152      H1155   1.079       .  S
C1153      C1286   1.466       .  S
N1156      C1160   1.357       .  A
N1156      C1157   1.356       .  A
C1157      C1158   1.376       .  A
C1159      H1162   1.079       .  S
C1160      C1279   1.468       .  S
N1163      C1167   1.358       .  A
N1163      C1164   1.357       .  A
C1164      C1165   1.378       .  A
C1166      H1169   1.078       .  S
C1167      C1293   1.468       .  S
N1170      C1174   1.356       .  A
N1170      C1171   1.356       .  A
C1171      C1172   1.377       .  A
C1172      C1173   1.371       .  A
C1172      H1175   1.079       .  S
C1173      C1174   1.377       .  A
C1173      H1176   1.079       .  S
C1174      C1300   1.464       .  S
N1177      C1181   1.357       .  A
N1177      C1178   1.355       .  A
N1177      C1196   1.443       .  S
C1178      C1179   1.376       .  A
C1178      C1325   1.464       .  S
C1180      H1183   1.079       .  S
C1181      C1220   1.468       .  S
O1184      V1192   1.906       .  S
O1184      C1194   1.267       .  A
O1185      V1192   1.907       .  S
O1185      C1195   1.266       .  A
O1186      V1192   1.900       .  S
O1186      C1196   1.264       .  A
O1187      V1192   1.898       .  S
O1187      C1197   1.264       .  A
O1188      V1193   1.909       .  S
O1188      C1197   1.267       .  A
O1189      V1193   1.906       .  S
O1189      C1196   1.267       .  A
O1190      V1193   1.900       .  S
O1190      C1195   1.264       .  A
O1191      V1193   1.899       .  S
O1191      C1194   1.264       .  A
V1192      V1193   2.086       .  T
C1194      N1205   1.443       .  S
C1195      N1198   1.443       .  S
C1197      N1212   1.443       .  S
N1198      C1202   1.355       .  A
N1198      C1199   1.356       .  A
C1199      C1200   1.377       .  A
C1199      C1332   1.465       .  S
C1201      H1204   1.079       .  S
C1202      C1244   1.464       .  S
N1205      C1209   1.357       .  A
N1205      C1206   1.356       .  A
C1206      C1207   1.377       .  A
C1206      C1251   1.466       .  S
C1207      C1208   1.373       .  A
C1207      H1210   1.079       .  S
C1208      C1209   1.377       .  A
C1208      H1211   1.079       .  S
C1209      C1318   1.468       .  S
N1212      C1216   1.357       .  A
N1212      C1213   1.357       .  A
C1213      C1214   1.376       .  A
C1213      C1255   1.468       .  S
C1214      C1215   1.372       .  A
C1214      H1217   1.080       .  S
C1215      C1216   1.378       .  A
C1215      H1218   1.078       .  S
C1216      C1339   1.467       .  S
N1219      C1239   1.444   1_545  S
C1220      C1221   1.378       .  A
C1221      C1222   1.373       .  A
C1221      H1224   1.079       .  S
C1222      C1223   1.376       .  A
C1222      H1225   1.080       .  S
O1226      V1234   1.908       .  S
O1226      C1236   1.266       .  A
O1227      V1234   1.906       .  S
O1227      C1237   1.267       .  A
O1228      V1234   1.901       .  S
O1228      C1238   1.265       .  A
O1229      V1234   1.903       .  S
O1229      C1239   1.265       .  A
O1230      V1235   1.907       .  S
O1230      C1239   1.266       .  A
O1231      V1235   1.906       .  S
O1231      C1238   1.266       .  A
O1232      V1235   1.900       .  S
O1232      C1237   1.264       .  A
O1233      V1235   1.898       .  S
O1233      C1236   1.264       .  A
V1234      V1235   2.086       .  T
C1236      N1247   1.443       .  S
C1237      N1240   1.443   1_565  S
C1238      N1254   1.443       .  S
N1240      C1241   1.356       .  A
C1242      C1243   1.372       .  A
C1242      H1245   1.079       .  S
C1243      C1244   1.376       .  A
C1243      H1246   1.079       .  S
N1247      C1251   1.356       .  A
N1247      C1248   1.356       .  A
C1248      C1249   1.378       .  A
C1248      C1283   1.466       .  S
C1249      C1250   1.372       .  A
C1249      H1252   1.078       .  S
C1250      C1251   1.376       .  A
C1250      H1253   1.080       .  S
N1254      C1258   1.356       .  A
N1254      C1255   1.356       .  A
C1255      C1256   1.378       .  A
C1256      C1257   1.373       .  A
C1256      H1259   1.079       .  S
C1257      C1258   1.376       .  A
C1257      H1260   1.079       .  S
C1258      C1297   1.467       .  S
O1261      C1271   1.265       .  A
O1262      V1269   1.905       .  S
O1262      C1272   1.266       .  A
O1263      C1273   1.266       .  A
O1264      V1269   1.904       .  S
O1264      C1274   1.265       .  A
O1265      V1270   1.903       .  S
O1265      C1274   1.266       .  A
O1266      C1273   1.265       .  A
O1267      V1270   1.904       .  S
O1267      C1272   1.266       .  A
O1268      C1271   1.266       .  A
V1269      V1270   2.086       .  T
C1271      N1296   1.444       .  S
C1272      N1275   1.444   1_565  S
C1273      N1289   1.444   1_565  S
C1274      N1282   1.444       .  S
N1275      C1276   1.356       .  A
C1277      C1278   1.371       .  A
C1277      H1280   1.081       .  S
C1278      C1279   1.379       .  A
C1278      H1281   1.078       .  S
N1282      C1286   1.357       .  A
N1282      C1283   1.356       .  A
C1283      C1284   1.378       .  A
C1284      C1285   1.371       .  A
C1284      H1287   1.079       .  S
C1285      C1286   1.377       .  A
C1285      H1288   1.080       .  S
C1290      C1291   1.378       .  A
C1291      C1292   1.373       .  A
C1291      H1294   1.079       .  S
C1292      C1293   1.377       .  A
C1292      H1295   1.081       .  S
N1296      C1300   1.355       .  A
N1296      C1297   1.357       .  A
C1297      C1298   1.378       .  A
C1298      C1299   1.372       .  A
C1298      H1301   1.080       .  S
C1299      C1300   1.377       .  A
C1299      H1302   1.079       .  S
O1303      C1313   1.266       .  A
O1304      V1311   1.902       .  S
O1304      C1314   1.264       .  A
O1305      V1311   1.906       .  S
O1305      C1315   1.267       .  A
O1306      C1316   1.264       .  A
O1307      C1316   1.266       .  A
O1308      V1312   1.901       .  S
O1308      C1315   1.264       .  A
O1309      V1312   1.907       .  S
O1309      C1314   1.267       .  A
O1310      C1313   1.264       .  A
V1311      V1312   2.086       .  T
C1313      N1338   1.444       .  S
C1314      N1324   1.444       .  S
C1315      N1317   1.444       .  S
C1316      N1331   1.443       .  S
N1317      C1321   1.355       .  A
N1317      C1318   1.357       .  A
C1318      C1319   1.378       .  A
C1319      C1320   1.373       .  A
C1319      H1322   1.080       .  S
C1320      C1321   1.377       .  A
C1320      H1323   1.079       .  S
N1324      C1328   1.357       .  A
N1324      C1325   1.356       .  A
C1325      C1326   1.377       .  A
C1327      H1330   1.080       .  S
N1331      C1335   1.357       .  A
N1331      C1332   1.355       .  A
C1332      C1333   1.377       .  A
C1334      H1337   1.078       .  S
N1338      C1342   1.356       .  A
N1338      C1339   1.357       .  A
C1339      C1340   1.377       .  A
C1340      C1341   1.372       .  A
C1340      H1343   1.079       .  S
C1341      C1342   1.377       .  A
C1341      H1344   1.080       .  S
