geometry optimzed in LAMMPS
_audit_creation_date              2020-11-30 
_audit_creation_method            'lammps2cif' 
_symmetry_space_group_name_H-M    'P1' 
_symmetry_Int_Tables_number       1 
_symmetry_cell_setting            triclinic 
loop_ 
_symmetry_equiv_pos_as_xyz 
  x,y,z 
_cell_length_a                    40.09434803 
_cell_length_b                    40.09038238015102 
_cell_length_c                    75.8528947718836 
_cell_angle_alpha                 89.90057785396323 
_cell_angle_beta                  90.00721720254028 
_cell_angle_gamma                 89.89453292204546 
loop_ 
_atom_site_label 
_atom_site_type_symbol 
_atom_site_fract_x 
_atom_site_fract_y 
_atom_site_fract_z 
_atom_site_charge 
C1          C  0.70274722  0.27099884  0.84986503     0.80300
N2          N  0.73180301  0.28373497  0.84361914    -0.78000
C3          C  0.74435451  0.31270891  0.85012316     0.82700
N4          N  0.72739153  0.32901893  0.86308168    -0.78000
C5          C  0.69828973  0.31642794  0.86951336     0.82800
N6          N  0.68623614  0.28752646  0.86277670    -0.79700
C7          C  0.18562473  0.17065259  0.67133769     0.80300
N8          N  0.16947707  0.15297305  0.65865097    -0.78000
C9          C  0.18230645  0.12372901  0.65262217     0.82700
N10         N  0.21136781  0.11218960  0.65947504    -0.78000
C11         C  0.22786324  0.12960834  0.67203674     0.82800
N12         N  0.21491574  0.15884421  0.67791296    -0.79700
C13         C  0.37986467  0.66100766  0.84461922     0.80300
N14         N  0.35349873  0.64614943  0.83657385    -0.78000
C15         C  0.34402567  0.61473377  0.84121491     0.82700
N16         N  0.36117049  0.59827655  0.85406707    -0.78000
C17         C  0.38735465  0.61307859  0.86230191     0.82800
N18         N  0.39642893  0.64430302  0.85745619    -0.79700
C19         C  0.86954311  0.79051565  0.67149364     0.80300
N20         N  0.88487549  0.80831944  0.65853981    -0.78000
C21         C  0.87094159  0.83690669  0.65225647     0.82700
N22         N  0.84148607  0.84747853  0.65901516    -0.78000
C23         C  0.82578949  0.83004879  0.67187866     0.82800
N24         N  0.83997520  0.80157658  0.67809568    -0.79700
O25         O  0.02165137  0.51458882  0.72457429    -0.57800
C26         C  0.05065565  0.42262303  0.73296234     0.74900
O27         O  0.05741248  0.51161615  0.77642131    -0.58900
C28         C  0.00692390  0.53856674  0.73216055     0.74800
C29         C  0.97448920  0.45445857  0.77215069     0.77200
Cd30       Cd  0.02971015  0.48129927  0.75201593     1.37500
O31         O  0.03818182  0.44748574  0.72500342    -0.57800
O32         O  0.97039863  0.46688297  0.75695953    -0.56600
C33         C  0.08673023  0.50881697  0.77046412     0.77200
O34         O  0.00399204  0.45448954  0.77804163    -0.58900
O35         O  0.05313228  0.42504494  0.74953363    -0.57400
O36         O  0.00281865  0.53572996  0.74862600    -0.57400
O37         O  0.08967906  0.49339453  0.75602456    -0.56600
O38         O  0.50083320  0.94377153  0.78890528    -0.57800
C39         C  0.55520028  0.02906574  0.78545539     0.74900
O40         O  0.55382140  0.95338596  0.73917596    -0.58900
C41         C  0.49038059  0.92058203  0.77900961     0.74800
C42         C  0.47569205  0.01523600  0.74548073     0.77200
Cd43       Cd  0.52462498  0.97748339  0.76466740     1.37500
O44         O  0.54156418  0.00423912  0.79287703    -0.57800
O45         O  0.46969059  0.00250352  0.76042380    -0.56600
C46         C  0.57920526  0.94427493  0.74786942     0.77200
O47         O  0.50448572  0.01016559  0.73920072    -0.58900
O48         O  0.55421144  0.02967487  0.76880803    -0.57400
O49         O  0.49525015  0.92426136  0.76264670    -0.57400
O50         O  0.57924909  0.95099228  0.76414794    -0.56600
C51         C  0.51110708  0.46714308  0.98998265     0.02300
C52         C  0.53334524  0.43991632  0.99146287     0.02300
C53         C  0.54358610  0.42942941  0.00824429    -0.18200
C54         C  0.53270227  0.44573427  0.02354961     0.02300
C55         C  0.51079270  0.47327591  0.02203032     0.02300
C56         C  0.50008666  0.48339677  0.00525285    -0.18200
H57         H  0.48334142  0.50458019  0.00402119     0.04300
H58         H  0.56071125  0.40853897  0.00940771     0.04300
C59         C  0.01247000  0.97125987  0.52492552     0.02300
C60         C  0.03961002  0.99378542  0.52521356     0.02300
C61         C  0.05390203  0.00420356  0.50924316    -0.18200
C62         C  0.04140844  0.99346196  0.49293841     0.02300
C63         C  0.01364977  0.97170894  0.49262361     0.02300
C64         C  0.99965185  0.96092410  0.50861444    -0.18200
H65         H  0.97909370  0.94332974  0.50833424     0.04300
H66         H  0.07453042  0.02172678  0.50948807     0.04300
C67         C  0.71520369  0.32240227  0.17567653     0.80300
N68         N  0.70249225  0.29337336  0.18197671    -0.78000
C69         C  0.67458840  0.27979985  0.17482833     0.82700
N70         N  0.65924880  0.29567735  0.16119834    -0.78000
C71         C  0.67156208  0.32483097  0.15476185     0.82800
N72         N  0.69955350  0.33799757  0.16208014    -0.79700
C73         C  0.21323495  0.12403510  0.34079831     0.80300
N74         N  0.20020132  0.15063941  0.33211160    -0.78000
C75         C  0.17015342  0.16346307  0.33680797     0.82700
N76         N  0.15330742  0.14964636  0.35052850    -0.78000
C77         C  0.16605213  0.12303525  0.35938561     0.82800
N78         N  0.19598148  0.11023422  0.35437896    -0.79700
C79         C  0.35157817  0.61179306  0.17722853     0.80300
N80         N  0.36324252  0.59692068  0.16237498    -0.78000
C81         C  0.38981756  0.60980635  0.15356425     0.82700
N82         N  0.40472067  0.63784096  0.15975327    -0.78000
C83         C  0.39336258  0.65295799  0.17458100     0.82800
N84         N  0.36676565  0.63980649  0.18319833    -0.79700
C85         C  0.84229711  0.83651530  0.34200286     0.80300
N86         N  0.86001371  0.85208190  0.35487256    -0.78000
C87         C  0.89091064  0.84098020  0.35950268     0.82700
N88         N  0.90393704  0.81393002  0.35115448    -0.78000
C89         C  0.88654017  0.79804336  0.33830893     0.82800
N90         N  0.85579336  0.80956332  0.33381736    -0.79700
O91         O  0.08388580  0.50220020  0.25510654    -0.57800
C92         C  0.96871772  0.45652668  0.23655001     0.74900
O93         O  0.03577649  0.44462255  0.28154955    -0.58900
C94         C  0.08718925  0.50224317  0.23851949     0.74800
C95         C  0.00425976  0.53891534  0.27413963     0.77200
Cd96       Cd  0.02655689  0.48025913  0.25546006     1.37500
O97         O  0.99420151  0.46717356  0.22847977    -0.57800
O98         O  0.01403307  0.51307570  0.28224719    -0.56600
C99         C  0.04860637  0.42065435  0.27308394     0.77200
O100        O  0.00462892  0.53744681  0.25746713    -0.58900
O101        O  0.96978599  0.45776577  0.25319606    -0.57400
O102        O  0.06222153  0.49255330  0.22970342    -0.57400
O103        O  0.05094828  0.42434592  0.25658003    -0.56600
O104        O  0.49339870  0.00065117  0.28432381    -0.57800
C105        C  0.58155042  0.94655037  0.27521362     0.74900
O106        O  0.50353898  0.93731802  0.23428292    -0.58900
C107        C  0.46406587  0.99419669  0.27921268     0.74800
C108        C  0.54058364  0.02929252  0.23883960     0.77200
Cd109      Cd  0.52116370  0.97205682  0.25938589     1.37500
O110        O  0.55688547  0.95499805  0.28464153    -0.57800
O111        O  0.54275625  0.02818052  0.25544984    -0.56600
C112        C  0.49763490  0.91182158  0.24369321     0.77200
O113        O  0.52840419  0.00381425  0.23140405    -0.58900
O114        O  0.57824423  0.95054512  0.25876977    -0.57400
O115        O  0.46143296  0.97797882  0.26501748    -0.57400
O116        O  0.50257423  0.91466840  0.26010356    -0.56600
C117        C  0.80878878  0.84892931  0.33672287    -0.03200
C118        C  0.79280122  0.87441612  0.34624653    -0.05800
C119        C  0.76176671  0.88677489  0.34081024    -0.20800
C120        C  0.74612819  0.87423457  0.32564211     0.24900
C121        C  0.76159422  0.84792513  0.31645628    -0.18400
C122        C  0.79254521  0.83553457  0.32190391    -0.08400
C123        C  0.71380426  0.88910023  0.31988200    -0.18600
C124        C  0.70266902  0.88762200  0.30313197    -0.23400
C125        C  0.67139464  0.90361795  0.29670545     0.26900
C126        C  0.66756996  0.90824351  0.27847479    -0.20200
C127        C  0.63858676  0.92253218  0.27159642    -0.09900
C128        C  0.61250030  0.93238118  0.28278962    -0.10400
C129        C  0.61608669  0.92775685  0.30106025    -0.03300
C130        C  0.64522145  0.91344501  0.30798276    -0.18400
H131        H  0.80435936  0.88504241  0.35786138     0.10600
H132        H  0.75022832  0.90666324  0.34829198     0.10700
H133        H  0.74987948  0.83654366  0.30512350     0.10400
H134        H  0.80386251  0.81559575  0.31436537     0.11500
H135        H  0.70000642  0.90350263  0.32956558     0.11600
H136        H  0.71809886  0.87562265  0.29321476     0.13500
H137        H  0.68715570  0.90076931  0.26946654     0.10000
H138        H  0.63654366  0.92562468  0.25745189     0.12100
H139        H  0.59625083  0.93487450  0.30998847     0.08700
H140        H  0.64670629  0.90958626  0.32205981     0.11400
C141        C  0.90048310  0.76798034  0.32954797    -0.03200
C142        C  0.88150165  0.75063122  0.31697969    -0.05800
C143        C  0.89397223  0.72180529  0.30904890    -0.20800
C144        C  0.92557385  0.70936018  0.31351390     0.24900
C145        C  0.94498459  0.72693718  0.32585264    -0.18400
C146        C  0.93251258  0.75594555  0.33378634    -0.08400
C147        C  0.93761498  0.67882041  0.30442401    -0.18600
C148        C  0.96134824  0.65823867  0.31079960    -0.23400
C149        C  0.97219148  0.62770893  0.30123435     0.26900
C150        C  0.98467826  0.60035802  0.31076874    -0.20200
C151        C  0.99486539  0.57129394  0.30204035    -0.09900
C152        C  0.99315192  0.56927025  0.28355160    -0.10400
C153        C  0.98114706  0.59680782  0.27401847    -0.03300
C154        C  0.97088578  0.62572743  0.28271789    -0.18400
H155        H  0.85682427  0.75916499  0.31330478     0.10600
H156        H  0.87865055  0.70896515  0.29944668     0.10700
H157        H  0.96987277  0.71871487  0.32921883     0.10400
H158        H  0.94799035  0.76888806  0.34326687     0.11500
H159        H  0.92491641  0.67215562  0.29227974     0.11600
H160        H  0.97192797  0.66277405  0.32375689     0.13500
H161        H  0.98624440  0.60135666  0.32502236     0.10000
H162        H  0.00419314  0.55052511  0.30973211     0.12100
H163        H  0.97982819  0.59612610  0.25975636     0.08700
H164        H  0.96254328  0.64663179  0.27485647     0.11400
C165        C  0.48571369  0.88018763  0.23611231    -0.03200
C166        C  0.47929008  0.85294871  0.24722762    -0.05800
C167        C  0.46817105  0.82281402  0.24030122    -0.20800
C168        C  0.46336986  0.81911036  0.22209799     0.24900
C169        C  0.46951751  0.84648401  0.21091234    -0.18400
C170        C  0.48068866  0.87676295  0.21787669    -0.08400
C171        C  0.45035876  0.78677020  0.21567704    -0.18600
C172        C  0.45165770  0.77660088  0.19879250    -0.23400
C173        C  0.43700184  0.74448690  0.19298273     0.26900
C174        C  0.44912314  0.72914759  0.17764739    -0.20200
C175        C  0.43532951  0.69916092  0.17173163    -0.09900
C176        C  0.40892690  0.68410487  0.18098749    -0.10400
C177        C  0.39672083  0.69963410  0.19626800    -0.03300
C178        C  0.41039673  0.72953691  0.20212107    -0.18400
H179        H  0.48280885  0.85488196  0.26135890     0.10600
H180        H  0.46330087  0.80228025  0.24921925     0.10700
H181        H  0.46516607  0.84498240  0.19685195     0.10400
H182        H  0.48522116  0.89748382  0.20904328     0.11500
H183        H  0.44013964  0.77013565  0.22558343     0.11600
H184        H  0.46466370  0.79145472  0.18901920     0.13500
H185        H  0.46934158  0.74035009  0.17027008     0.10000
H186        H  0.44520664  0.68794985  0.15983399     0.12100
H187        H  0.37621080  0.68896788  0.20362606     0.08700
H188        H  0.39936168  0.74116939  0.21359214     0.11400
C189        C  0.32176081  0.59857009  0.18642700    -0.03200
C190        C  0.30674603  0.61688463  0.20009887    -0.05800
C191        C  0.27793211  0.60517523  0.20836155    -0.20800
C192        C  0.26327916  0.57506744  0.20311040     0.24900
C193        C  0.27864924  0.55626893  0.18971580    -0.18400
C194        C  0.30754517  0.56796370  0.18144250    -0.08400
C195        C  0.23255905  0.56371322  0.21221258    -0.18600
C196        C  0.20961992  0.54391851  0.20461787    -0.23400
C197        C  0.17847699  0.53344697  0.21364550     0.26900
C198        C  0.15043480  0.52534802  0.20346770    -0.20200
C199        C  0.12071396  0.51529070  0.21150670    -0.09900
C200        C  0.11855352  0.51292275  0.22995910    -0.10400
C201        C  0.14675744  0.52052193  0.24016190    -0.03300
C202        C  0.17645686  0.53055685  0.23211706    -0.18400
H203        H  0.31701549  0.64053847  0.20431675     0.10600
H204        H  0.26674590  0.61995892  0.21876343     0.10700
H205        H  0.26868590  0.53237350  0.18573714     0.10400
H206        H  0.31871684  0.55300948  0.17111956     0.11500
H207        H  0.22779566  0.57379664  0.22527560     0.11600
H208        H  0.21271930  0.53658654  0.19091242     0.13500
H209        H  0.15143611  0.52708305  0.18918905     0.10000
H210        H  0.09944717  0.50945582  0.20331290     0.12100
H211        H  0.14596017  0.51847605  0.25440538     0.08700
H212        H  0.19787087  0.53545968  0.24038761     0.11400
C213        C  0.15643650  0.19277076  0.32737361    -0.03200
C214        C  0.17453729  0.20792803  0.31367304    -0.05800
C215        C  0.16223470  0.23637006  0.30524891    -0.20800
C216        C  0.13166335  0.25039369  0.31037415     0.24900
C217        C  0.11299380  0.23462054  0.32368038    -0.18400
C218        C  0.12531633  0.20620855  0.33213347    -0.08400
C219        C  0.11982162  0.28084597  0.30117632    -0.18600
C220        C  0.09709162  0.30193153  0.30802893    -0.23400
C221        C  0.08492174  0.33215074  0.29869658     0.26900
C222        C  0.06927120  0.35738427  0.30852477    -0.20200
C223        C  0.05725146  0.38612948  0.30021994    -0.09900
C224        C  0.06051974  0.39009514  0.28192106    -0.10400
C225        C  0.07560053  0.36463129  0.27202920    -0.03300
C226        C  0.08752828  0.33590578  0.28030413    -0.18400
H227        H  0.19848120  0.19805585  0.30953313     0.10600
H228        H  0.17684711  0.24772587  0.29485635     0.10700
H229        H  0.08864769  0.24380633  0.32753082     0.10400
H230        H  0.11048583  0.19485126  0.34243336     0.11500
H231        H  0.13152966  0.28666823  0.28866349     0.11600
H232        H  0.08779579  0.29777223  0.32127679     0.13500
H233        H  0.06655816  0.35493469  0.32265633     0.10000
H234        H  0.04550487  0.40531833  0.30815788     0.12100
H235        H  0.07812974  0.36687772  0.25788418     0.08700
H236        H  0.09820890  0.31658312  0.27209327     0.11400
C237        C  0.43433282  0.00491628  0.28914099    -0.03200
C238        C  0.40305024  0.99111176  0.28519335    -0.05800
C239        C  0.37457534  0.00171188  0.29414630    -0.20800
C240        C  0.37671963  0.02685135  0.30689118     0.24900
C241        C  0.40808535  0.04021207  0.31117451    -0.18400
C242        C  0.43672500  0.02917078  0.30241632    -0.08400
C243        C  0.34567957  0.03896578  0.31520538    -0.18600
C244        C  0.34080586  0.07136366  0.31896694    -0.23400
C245        C  0.30832619  0.08449773  0.32516131     0.26900
C246        C  0.29959857  0.11747059  0.32099073    -0.20200
C247        C  0.26864276  0.13031131  0.32603147    -0.09900
C248        C  0.24609340  0.11057236  0.33562891    -0.10400
C249        C  0.25522228  0.07787325  0.34024226    -0.03300
C250        C  0.28602050  0.06491308  0.33502924    -0.18400
H251        H  0.40055977  0.97213056  0.27512876     0.10600
H252        H  0.35066419  0.99094416  0.29075667     0.10700
H253        H  0.41047797  0.05911239  0.32127488     0.10400
H254        H  0.46060599  0.04001315  0.30578883     0.11500
H255        H  0.32519018  0.02146229  0.31640198     0.11600
H256        H  0.36026152  0.08926685  0.31590401     0.13500
H257        H  0.31649418  0.13309612  0.31354328     0.10000
H258        H  0.26244821  0.15576418  0.32247036     0.12100
H259        H  0.23842428  0.06216836  0.34770490     0.08700
H260        H  0.29236595  0.03970267  0.33890914     0.11400
C261        C  0.66065937  0.24848070  0.18217620    -0.03200
C262        C  0.67614030  0.23267626  0.19657944    -0.05800
C263        C  0.66227340  0.20404471  0.20404742    -0.20800
C264        C  0.63270666  0.19033736  0.19732407     0.24900
C265        C  0.61738614  0.20591114  0.18276472    -0.18400
C266        C  0.63129873  0.23455905  0.17524867    -0.08400
C267        C  0.61828216  0.16087155  0.20649222    -0.18600
C268        C  0.59278829  0.14234645  0.20031237    -0.23400
C269        C  0.57874209  0.11380213  0.21036317     0.26900
C270        C  0.56334860  0.08752349  0.20123178    -0.20200
C271        C  0.55047527  0.06006034  0.21040859    -0.09900
C272        C  0.55244064  0.05865945  0.22888249    -0.10400
C273        C  0.56690537  0.08543413  0.23799907    -0.03300
C274        C  0.57978215  0.11272254  0.22887893    -0.18400
H275        H  0.69877700  0.24263343  0.20226838     0.10600
H276        H  0.67461902  0.19270843  0.21529840     0.10700
H277        H  0.59423788  0.19673100  0.17729080     0.10400
H278        H  0.61869658  0.24612454  0.16418736     0.11500
H279        H  0.62985076  0.15378750  0.21886717     0.11600
H280        H  0.58263994  0.14703613  0.18732283     0.13500
H281        H  0.56182320  0.08800669  0.18699446     0.10000
H282        H  0.53928562  0.03979287  0.20303766     0.12100
H283        H  0.56848795  0.08525254  0.25225302     0.08700
H284        H  0.59016348  0.13306715  0.23644141     0.11400
C285        C  0.74573343  0.33686067  0.18362392    -0.03200
C286        C  0.75981781  0.32256917  0.19884408    -0.06200
C287        C  0.78842089  0.33621816  0.20645989    -0.20800
C288        C  0.80385036  0.36425756  0.19897658     0.24900
C289        C  0.78979274  0.37868923  0.18376242    -0.18400
C290        C  0.76105177  0.36509600  0.17617943    -0.08400
C291        C  0.83336472  0.37863190  0.20806657    -0.18600
C292        C  0.85580236  0.39874143  0.20014799    -0.23400
C293        C  0.88444252  0.41371609  0.20975501     0.26900
C294        C  0.91299343  0.42315304  0.20023096    -0.20200
C295        C  0.94029416  0.43747602  0.20887946    -0.09900
C296        C  0.93948250  0.44280050  0.22716367    -0.10400
C297        C  0.91066650  0.43400600  0.23661724    -0.03300
C298        C  0.88340932  0.41979606  0.22799174    -0.18400
H299        H  0.74863421  0.30092612  0.20500830     0.10600
H300        H  0.79850127  0.32482553  0.21825823     0.10700
H301        H  0.80030296  0.40087094  0.17789942     0.10400
H302        H  0.75077643  0.37686107  0.16450737     0.11500
H303        H  0.83717390  0.37141418  0.22164912     0.11600
H304        H  0.85402764  0.40345555  0.18616323     0.13500
H305        H  0.91428895  0.41911015  0.18618204     0.10000
H306        H  0.96220225  0.44403612  0.20124147     0.12100
H307        H  0.90918075  0.43813343  0.25066638     0.08700
H308        H  0.86138708  0.41410095  0.23570598     0.11400
C309        C  0.14805122  0.10887699  0.37471400    -0.03200
C310        C  0.12194396  0.12673961  0.38271069    -0.05800
C311        C  0.10546509  0.11378581  0.39743751    -0.20800
C312        C  0.11463312  0.08273998  0.40453172     0.24900
C313        C  0.14042903  0.06457941  0.39634173    -0.18400
C314        C  0.15707008  0.07763335  0.38167592    -0.08400
C315        C  0.09593887  0.06982382  0.42006672    -0.18600
C316        C  0.10798984  0.04621848  0.43104579    -0.23400
C317        C  0.08969527  0.03303555  0.44666261     0.26900
C318        C  0.10779445  0.01516249  0.45940768    -0.20200
C319        C  0.09197786  0.00203670  0.47427126    -0.09900
C320        C  0.05751225  0.00619970  0.47665249    -0.10400
C321        C  0.03916296  0.02373015  0.46389045    -0.03300
C322        C  0.05498308  0.03692363  0.44898163    -0.18400
H323        H  0.11442924  0.15091544  0.37772404     0.10600
H324        H  0.08556169  0.12821155  0.40337905     0.10700
H325        H  0.14755459  0.04004764  0.40095011     0.10400
H326        H  0.17680857  0.06307138  0.37569171     0.11500
H327        H  0.07207939  0.08136460  0.42285964     0.11600
H328        H  0.13307155  0.03685057  0.42902911     0.13500
H329        H  0.13447629  0.01150501  0.45793488     0.10000
H330        H  0.10660605  0.98859274  0.48394956     0.12100
H331        H  0.01252400  0.02748003  0.46555412     0.08700
H332        H  0.03983012  0.04970312  0.43932379     0.11400
C333        C  0.99884816  0.95922603  0.47599390    -0.03200
C334        C  0.96470877  0.96378880  0.47285263    -0.05800
C335        C  0.94991672  0.95089499  0.45769147    -0.20800
C336        C  0.96880410  0.93299222  0.44530150     0.24900
C337        C  0.00321365  0.92842041  0.44846263    -0.18400
C338        C  0.01802946  0.94145562  0.46369386    -0.08400
C339        C  0.95094024  0.91903445  0.42974088    -0.18600
C340        C  0.96558117  0.90347921  0.41602818    -0.23400
C341        C  0.94619322  0.88867310  0.40126266     0.26900
C342        C  0.95979336  0.86152968  0.39208473    -0.20200
C343        C  0.94194512  0.84618100  0.37850870    -0.09900
C344        C  0.91013162  0.85786337  0.37364909    -0.10400
C345        C  0.89688769  0.88568448  0.38251165    -0.03300
C346        C  0.91474372  0.90099769  0.39611848    -0.18400
H347        H  0.94943560  0.97733429  0.48221453     0.10600
H348        H  0.92343562  0.95477466  0.45570023     0.10700
H349        H  0.01881767  0.91446636  0.43952336     0.10400
H350        H  0.04434817  0.93716791  0.46604315     0.11500
H351        H  0.92395804  0.92113768  0.42989486     0.11600
H352        H  0.99234221  0.89985644  0.41580991     0.13500
H353        H  0.98407539  0.85175973  0.39564875     0.10000
H354        H  0.95307827  0.82497498  0.37191218     0.12100
H355        H  0.87268637  0.89563929  0.37898372     0.08700
H356        H  0.90391238  0.92265270  0.40240457     0.11400
C357        C  0.40179060  0.59407529  0.13709309    -0.03200
C358        C  0.38476134  0.56677506  0.12983889    -0.05800
C359        C  0.39581459  0.55212808  0.11422449    -0.20800
C360        C  0.42427779  0.56418100  0.10555845     0.24900
C361        C  0.44108512  0.59187635  0.11263380    -0.18400
C362        C  0.43000372  0.60657079  0.12827178    -0.08400
C363        C  0.43505073  0.54720650  0.08914154    -0.18600
C364        C  0.46595622  0.54952313  0.08226545    -0.23400
C365        C  0.47679158  0.53040848  0.06649018     0.26900
C366        C  0.51109067  0.52554525  0.06362545    -0.20200
C367        C  0.52225016  0.50681841  0.04924810    -0.09900
C368        C  0.49931791  0.49260686  0.03750384    -0.10400
C369        C  0.46511978  0.49820776  0.04003743    -0.03300
C370        C  0.45395294  0.51707141  0.05430337    -0.18400
H371        H  0.36277353  0.55667802  0.13618338     0.10600
H372        H  0.38221258  0.53105019  0.10898066     0.10700
H373        H  0.46248261  0.60266208  0.10610266     0.10400
H374        H  0.44350940  0.62779917  0.13339547     0.11500
H375        H  0.41717421  0.53035483  0.08324397     0.11600
H376        H  0.48477491  0.56409705  0.08899018     0.13500
H377        H  0.52922085  0.53596493  0.07260506     0.10000
H378        H  0.54883089  0.50356533  0.04724550     0.12100
H379        H  0.44707734  0.48794775  0.03095165     0.08700
H380        H  0.42740132  0.52133198  0.05549058     0.11400
C381        C  0.65474834  0.34218760  0.13992592    -0.03200
C382        C  0.66568115  0.37387135  0.13450454    -0.05800
C383        C  0.65057543  0.39004067  0.12028139    -0.20800
C384        C  0.62407085  0.37515025  0.11118670     0.24900
C385        C  0.61288124  0.34349260  0.11660778    -0.18400
C386        C  0.62803233  0.32724402  0.13088406    -0.08400
C387        C  0.61046667  0.39265677  0.09549113    -0.18600
C388        C  0.58014228  0.38683290  0.08851720    -0.23400
C389        C  0.56830745  0.40379731  0.07223397     0.26900
C390        C  0.53390481  0.40730774  0.06924416    -0.20200
C391        C  0.52213425  0.42192648  0.05366045    -0.09900
C392        C  0.54466284  0.43298372  0.04075672    -0.10400
C393        C  0.57899648  0.42958183  0.04373736    -0.03300
C394        C  0.59075186  0.41506093  0.05925701    -0.18400
H395        H  0.68608136  0.38618393  0.14115435     0.10600
H396        H  0.65982020  0.41428696  0.11630748     0.10700
H397        H  0.59315386  0.33078229  0.10963124     0.10400
H398        H  0.61914438  0.30276180  0.13463034     0.11500
H399        H  0.62598473  0.41198487  0.08977672     0.11600
H400        H  0.56307435  0.36996333  0.09510111     0.13500
H401        H  0.51610859  0.39850582  0.07893881     0.10000
H402        H  0.49551927  0.42385776  0.05146942     0.12100
H403        H  0.59675886  0.43768393  0.03385296     0.08700
H404        H  0.61736994  0.41178210  0.06072986     0.11400
C405        C  0.88698035  0.85616344  0.63789847    -0.03200
C406        C  0.87314152  0.88664210  0.63228069    -0.05800
C407        C  0.88704745  0.90412906  0.61816042    -0.20800
C408        C  0.91522265  0.89176032  0.60936219     0.24900
C409        C  0.92933181  0.86138135  0.61507483    -0.18400
C410        C  0.91544454  0.84390008  0.62925946    -0.08400
C411        C  0.92800371  0.91057088  0.59385080    -0.18600
C412        C  0.95891604  0.90667064  0.58721091    -0.23400
C413        C  0.97165332  0.92495837  0.57151253     0.26900
C414        C  0.00624649  0.92571278  0.56866043    -0.20200
C415        C  0.01947107  0.94118885  0.55371297    -0.09900
C416        C  0.99842881  0.95644270  0.54129868    -0.10400
C417        C  0.96379603  0.95578668  0.54408164    -0.03300
C418        C  0.95048855  0.94012343  0.55900299    -0.18400
H419        H  0.85125683  0.89693547  0.63864427     0.10600
H420        H  0.87559442  0.92732034  0.61402624     0.10700
H421        H  0.95043681  0.85039090  0.60840228     0.10400
H422        H  0.92659343  0.82043516  0.63317261     0.11500
H423        H  0.91148680  0.92913699  0.58815702     0.11600
H424        H  0.97636251  0.89019469  0.59384505     0.13500
H425        H  0.02308686  0.91396721  0.57792632     0.10000
H426        H  0.04622027  0.94063557  0.55167555     0.12100
H427        H  0.94705793  0.96710845  0.53461421     0.08700
H428        H  0.92366732  0.93932170  0.56034053     0.11400
C429        C  0.79359328  0.84225751  0.67892080    -0.03200
C430        C  0.77855183  0.87083741  0.67162240    -0.05800
C431        C  0.74852878  0.88295018  0.67831482    -0.20800
C432        C  0.73298134  0.86705177  0.69255158     0.24900
C433        C  0.74749629  0.83796419  0.69963841    -0.18400
C434        C  0.77758005  0.82576071  0.69290931    -0.08400
C435        C  0.70172944  0.88159447  0.69956565    -0.18600
C436        C  0.69187194  0.87749852  0.71635939    -0.23400
C437        C  0.66216418  0.89417257  0.72392860     0.26900
C438        C  0.66058177  0.89820073  0.74226004    -0.20200
C439        C  0.63355629  0.91441432  0.75001483    -0.09900
C440        C  0.60737273  0.92671333  0.73957091    -0.10400
C441        C  0.60841265  0.92202722  0.72124822    -0.03300
C442        C  0.63553094  0.90582984  0.71347109    -0.18400
H443        H  0.79001583  0.88405923  0.66073867     0.10600
H444        H  0.73768149  0.90519856  0.67252904     0.10700
H445        H  0.73561613  0.82436033  0.71023830     0.10400
H446        H  0.78830719  0.80347977  0.69870011     0.11500
H447        H  0.68800860  0.89836280  0.69094507     0.11600
H448        H  0.70747118  0.86329863  0.72537683     0.13500
H449        H  0.68059765  0.88915334  0.75061836     0.10000
H450        H  0.63322637  0.91740601  0.76419934     0.12100
H451        H  0.58833495  0.93096319  0.71292744     0.08700
H452        H  0.63522662  0.90221037  0.69934453     0.11400
C453        C  0.88509196  0.75966828  0.67857311    -0.03200
C454        C  0.86947863  0.74175108  0.69220559    -0.05800
C455        C  0.88466262  0.71355236  0.69944425    -0.20800
C456        C  0.91558904  0.70227520  0.69319692     0.24900
C457        C  0.93116802  0.71985935  0.67939089    -0.18400
C458        C  0.91597137  0.74821989  0.67215578    -0.08400
C459        C  0.93128693  0.67325430  0.70212153    -0.18600
C460        C  0.95530071  0.65394178  0.69503510    -0.23400
C461        C  0.96969889  0.62493979  0.70464730     0.26900
C462        C  0.98233903  0.59765780  0.69513781    -0.20200
C463        C  0.99482388  0.56955518  0.70399576    -0.09900
C464        C  0.99498186  0.56837929  0.72251407    -0.10400
C465        C  0.98330790  0.59609774  0.73197538    -0.03300
C466        C  0.97108963  0.62414552  0.72317717    -0.18400
H467        H  0.84569222  0.74973882  0.69747819     0.10600
H468        H  0.87217925  0.70053776  0.71012069     0.10700
H469        H  0.95533531  0.71243079  0.67449054     0.10400
H470        H  0.92878304  0.76149317  0.66167974     0.11500
H471        H  0.92124902  0.66666388  0.71499020     0.11600
H472        H  0.96331968  0.65814749  0.68152307     0.13500
H473        H  0.98194777  0.59783613  0.68088403     0.10000
H474        H  0.00389044  0.54859424  0.69635817     0.12100
H475        H  0.98367077  0.59619034  0.74624893     0.08700
H476        H  0.96299435  0.64519167  0.73097486     0.11400
C477        C  0.40562639  0.59607837  0.87671119    -0.03200
C478        C  0.42875951  0.61398939  0.88689886    -0.05800
C479        C  0.44500610  0.59887523  0.90104831    -0.20800
C480        C  0.43893552  0.56539426  0.90526075     0.24900
C481        C  0.41628216  0.54712330  0.89490675    -0.18400
C482        C  0.39977424  0.56237463  0.88076261    -0.08400
C483        C  0.45501924  0.55150205  0.92126055    -0.18600
C484        C  0.46000634  0.51872338  0.92414501    -0.23400
C485        C  0.47474994  0.50553970  0.94073576     0.26900
C486        C  0.46844138  0.47227073  0.94553710    -0.20200
C487        C  0.48062103  0.45944002  0.96145125    -0.09900
C488        C  0.49933774  0.47971959  0.97276380    -0.10400
C489        C  0.50641733  0.51262515  0.96783028    -0.03300
C490        C  0.49462988  0.52533808  0.95188599    -0.18400
H491        H  0.43390592  0.64003492  0.88419818     0.10600
H492        H  0.46219383  0.61352740  0.90886646     0.10700
H493        H  0.41031498  0.52147827  0.89800264     0.10400
H494        H  0.38210102  0.54790445  0.87316405     0.11500
H495        H  0.46268602  0.56950606  0.93109900     0.11600
H496        H  0.45208158  0.50071154  0.91434902     0.13500
H497        H  0.45352264  0.45641056  0.93713219     0.10000
H498        H  0.47498161  0.43392064  0.96508867     0.12100
H499        H  0.52129704  0.52839694  0.97630907     0.08700
H500        H  0.50146225  0.55056053  0.94841504     0.11400
C501        C  0.39161361  0.69446387  0.83912909    -0.03200
C502        C  0.42092359  0.70779527  0.84647487    -0.05800
C503        C  0.43341133  0.73834337  0.84066220    -0.20800
C504        C  0.41700398  0.75633784  0.82738185     0.24900
C505        C  0.38700580  0.74365176  0.82043890    -0.18400
C506        C  0.37454410  0.71295069  0.82621809    -0.08400
C507        C  0.43195217  0.78823192  0.82132892    -0.18600
C508        C  0.42518467  0.80228290  0.80561048    -0.23400
C509        C  0.44200946  0.83292472  0.79927017     0.26900
C510        C  0.44626134  0.83736599  0.78108158    -0.20200
C511        C  0.46208080  0.86578680  0.77452789    -0.09900
C512        C  0.47356556  0.89063818  0.78606537    -0.10400
C513        C  0.46899949  0.88642987  0.80428634    -0.03300
C514        C  0.45332382  0.85785855  0.81085748    -0.18400
H515        H  0.43467401  0.69440044  0.85653296     0.10600
H516        H  0.45632091  0.74767096  0.84637120     0.10700
H517        H  0.37290953  0.75730487  0.81065126     0.10400
H518        H  0.35165971  0.70362519  0.82047469     0.11500
H519        H  0.45092003  0.79932765  0.82967487     0.11600
H520        H  0.40871192  0.78975051  0.79642515     0.13500
H521        H  0.43763771  0.81857253  0.77189863     0.10000
H522        H  0.46527340  0.86831171  0.76042423     0.12100
H523        H  0.47749095  0.90526474  0.81347706     0.08700
H524        H  0.44964173  0.85564604  0.82493417     0.11400
C525        C  0.31516916  0.59869995  0.83242868    -0.03200
C526        C  0.31026349  0.56402331  0.83364809    -0.05800
C527        C  0.28284079  0.54903412  0.82547749    -0.20800
C528        C  0.25939492  0.56834579  0.81627558     0.24900
C529        C  0.26448144  0.60296281  0.81484826    -0.18400
C530        C  0.29214528  0.61790605  0.82278746    -0.08400
C531        C  0.23052813  0.55172261  0.80777405    -0.18600
C532        C  0.20063428  0.56666068  0.80586101    -0.23400
C533        C  0.17180591  0.55043540  0.79710893     0.26900
C534        C  0.13933082  0.55926206  0.80222804    -0.20200
C535        C  0.11163387  0.54533235  0.79378816    -0.09900
C536        C  0.11591860  0.52282994  0.77978859    -0.10400
C537        C  0.14842124  0.51415124  0.77458254    -0.03300
C538        C  0.17609761  0.52770302  0.78318849    -0.18400
H539        H  0.32769624  0.54847940  0.84080704     0.10600
H540        H  0.27968174  0.52221790  0.82655773     0.10700
H541        H  0.24743101  0.61842987  0.80739379     0.10400
H542        H  0.29529205  0.64465567  0.82149559     0.11500
H543        H  0.23359391  0.52587944  0.80375542     0.11600
H544        H  0.19662319  0.59121423  0.81154430     0.13500
H545        H  0.13540260  0.57693063  0.81281789     0.10000
H546        H  0.08686785  0.55258180  0.79803386     0.12100
H547        H  0.15247071  0.49695035  0.76380385     0.08700
H548        H  0.20077837  0.52102092  0.77860282     0.11400
C549        C  0.05270936  0.00800677  0.54185472    -0.03200
C550        C  0.03133136  0.02443108  0.55365783    -0.05800
C551        C  0.04403159  0.03916024  0.56892246    -0.20800
C552        C  0.07827592  0.03775261  0.57271631     0.24900
C553        C  0.09967178  0.02119358  0.56084191    -0.18400
C554        C  0.08691745  0.00646121  0.54560026    -0.08400
C555        C  0.09091672  0.05561491  0.58851462    -0.18600
C556        C  0.12080564  0.04941322  0.59593248    -0.23400
C557        C  0.13459927  0.06857459  0.61101023     0.26900
C558        C  0.16139547  0.05479022  0.62042946    -0.20200
C559        C  0.17647780  0.07249237  0.63408585    -0.09900
C560        C  0.16518392  0.10456360  0.63863129    -0.10400
C561        C  0.13815807  0.11833944  0.62932739    -0.03300
C562        C  0.12312616  0.10065709  0.61558613    -0.18400
H563        H  0.00489794  0.02636125  0.55087853     0.10600
H564        H  0.02706012  0.05204923  0.57771822     0.10700
H565        H  0.12629518  0.02037021  0.56288878     0.10400
H566        H  0.10387788  0.99406221  0.53658495     0.11500
H567        H  0.07450202  0.07409645  0.59434839     0.11600
H568        H  0.13584544  0.02888140  0.59106459     0.13500
H569        H  0.17089045  0.03028213  0.61712457     0.10000
H570        H  0.19721145  0.06104425  0.64098823     0.12100
H571        H  0.12905804  0.14311858  0.63238707     0.08700
H572        H  0.10324470  0.11270643  0.60835188     0.11400
C573        C  0.45023832  0.03476893  0.73593795    -0.03200
C574        C  0.45812818  0.05218238  0.72038839    -0.05800
C575        C  0.43342733  0.06998438  0.71129780    -0.20800
C576        C  0.40045006  0.06998043  0.71747578     0.24900
C577        C  0.39284326  0.05333824  0.73326473    -0.18400
C578        C  0.41747951  0.03596132  0.74241558    -0.08400
C579        C  0.37394608  0.08692233  0.70728290    -0.18600
C580        C  0.34368777  0.07297430  0.70558919    -0.23400
C581        C  0.31584605  0.08859905  0.69588949     0.26900
C582        C  0.29255879  0.06785094  0.68763723    -0.20200
C583        C  0.26452041  0.08136276  0.67943880    -0.09900
C584        C  0.25876132  0.11592200  0.67975882    -0.10400
C585        C  0.28217022  0.13681922  0.68796076    -0.03300
C586        C  0.31068157  0.12329649  0.69586579    -0.18400
H587        H  0.48333660  0.05192115  0.71520487     0.10600
H588        H  0.43979286  0.08292984  0.69924984     0.10700
H589        H  0.36775334  0.05373693  0.73856328     0.10400
H590        H  0.41075630  0.02309860  0.75444841     0.11500
H591        H  0.37982566  0.10994113  0.70038305     0.11600
H592        H  0.33942150  0.04820201  0.71100020     0.13500
H593        H  0.29597485  0.04101588  0.68765144     0.10000
H594        H  0.24680831  0.06462360  0.67331622     0.12100
H595        H  0.27830437  0.16358167  0.68836604     0.08700
H596        H  0.32796257  0.13979585  0.70247211     0.11400
C597        C  0.06212625  0.39245098  0.72353935    -0.03200
C598        C  0.05836004  0.38948894  0.70518796    -0.05800
C599        C  0.07043006  0.36128563  0.69636424    -0.20800
C600        C  0.08686353  0.33582902  0.70568559     0.24900
C601        C  0.08958116  0.33832935  0.72412437    -0.18400
C602        C  0.07745051  0.36637923  0.73292132    -0.08400
C603        C  0.10062569  0.30679819  0.69594104    -0.18600
C604        C  0.12761523  0.28989005  0.70169743    -0.23400
C605        C  0.14224673  0.26024685  0.69282423     0.26900
C606        C  0.17377671  0.24917905  0.69835808    -0.20200
C607        C  0.18803088  0.22043366  0.69123076    -0.09900
C608        C  0.17100504  0.20192149  0.67834728    -0.10400
C609        C  0.13956323  0.21313910  0.67264430    -0.03300
C610        C  0.12522237  0.24190632  0.67981558    -0.18400
H611        H  0.04636252  0.40907257  0.69763900     0.10600
H612        H  0.06757346  0.35968115  0.68219617     0.10700
H613        H  0.10083977  0.31859663  0.73184042     0.10400
H614        H  0.08031147  0.36772740  0.74710222     0.11500
H615        H  0.08921227  0.30056105  0.68344696     0.11600
H616        H  0.14037326  0.29863702  0.71341991     0.13500
H617        H  0.18740418  0.26269486  0.70841631     0.10000
H618        H  0.21228790  0.21257584  0.69596275     0.12100
H619        H  0.12562859  0.19935247  0.66279748     0.08700
H620        H  0.10062140  0.24899126  0.67542896     0.11400
C621        C  0.54802320  0.42319225  0.97587266    -0.03200
C622        C  0.54675539  0.38833742  0.97435190    -0.05800
C623        C  0.56298456  0.37225319  0.96045388    -0.20800
C624        C  0.58104262  0.39059285  0.94789478     0.24900
C625        C  0.58144166  0.42564933  0.94917966    -0.18400
C626        C  0.56536479  0.44169418  0.96313116    -0.08400
C627        C  0.59879081  0.37224535  0.93366727    -0.18600
C628        C  0.62417350  0.38528046  0.92424419    -0.23400
C629        C  0.64259177  0.36689623  0.91024892     0.26900
C630        C  0.67352417  0.37935502  0.90457747    -0.20200
C631        C  0.69171396  0.36312376  0.89137785    -0.09900
C632        C  0.67926933  0.33400936  0.88349858    -0.10400
C633        C  0.64809992  0.32173891  0.88903120    -0.03300
C634        C  0.62990061  0.33802848  0.90215699    -0.18400
H635        H  0.53351383  0.37360198  0.98404684     0.10600
H636        H  0.56193284  0.34525098  0.95969841     0.10700
H637        H  0.59404418  0.44091303  0.93949612     0.10400
H638        H  0.56705411  0.46858554  0.96417179     0.11500
H639        H  0.59164719  0.34646982  0.93165670     0.11600
H640        H  0.63311491  0.41008842  0.92734965     0.13500
H641        H  0.68379521  0.40172272  0.91044619     0.10000
H642        H  0.71549859  0.37334638  0.88739997     0.12100
H643        H  0.63750611  0.29960569  0.88313276     0.08700
H644        H  0.60573191  0.32806353  0.90560748     0.11400
C645        C  0.68835460  0.24021614  0.84221083    -0.03200
C646        C  0.70538635  0.22250505  0.82900710    -0.05800
C647        C  0.69099253  0.19437915  0.82126704    -0.20800
C648        C  0.65942609  0.18315256  0.82661730     0.24900
C649        C  0.64239347  0.20078222  0.83987653    -0.18400
C650        C  0.65678243  0.22887929  0.84762886    -0.08400
C651        C  0.64438680  0.15427744  0.81732141    -0.18600
C652        C  0.61932844  0.13568619  0.82392759    -0.23400
C653        C  0.60356315  0.10809832  0.81390739     0.26900
C654        C  0.58783157  0.08204678  0.82309547    -0.20200
C655        C  0.57216195  0.05611283  0.81394424    -0.09900
C656        C  0.57163428  0.05605717  0.79543149    -0.10400
C657        C  0.58702154  0.08233428  0.78627716    -0.03300
C658        C  0.60269764  0.10810008  0.79537846    -0.18400
H659        H  0.72968898  0.23054681  0.82448285     0.10600
H660        H  0.70451163  0.18144360  0.81097313     0.10700
H661        H  0.61759664  0.19365950  0.84399620     0.10400
H662        H  0.64279491  0.24206893  0.85764481     0.11500
H663        H  0.65510620  0.14766694  0.80466176     0.11600
H664        H  0.61063916  0.13994166  0.83727507     0.13500
H665        H  0.58782759  0.08169335  0.83736859     0.10000
H666        H  0.56038167  0.03621444  0.82134031     0.12100
H667        H  0.58679852  0.08314671  0.77200466     0.08700
H668        H  0.61342043  0.12830110  0.78781737     0.11400
C669        C  0.77551337  0.32680246  0.84255319    -0.03200
C670        C  0.79446691  0.30821874  0.83041793    -0.05800
C671        C  0.82298532  0.32178800  0.82261481    -0.20800
C672        C  0.83284334  0.35449830  0.82648580     0.24900
C673        C  0.81444047  0.37297638  0.83885996    -0.18400
C674        C  0.78615253  0.35921075  0.84690110    -0.08400
C675        C  0.86261220  0.36850679  0.81753202    -0.18600
C676        C  0.86394136  0.40039870  0.81198831    -0.23400
C677        C  0.89267161  0.41382742  0.80190417     0.26900
C678        C  0.88683729  0.43696302  0.78833322    -0.20200
C679        C  0.91341351  0.44986826  0.77851875    -0.09900
C680        C  0.94638789  0.44063288  0.78243650    -0.10400
C681        C  0.95230619  0.41806085  0.79629604    -0.03300
C682        C  0.92566319  0.40454337  0.80584005    -0.18400
H683        H  0.78721148  0.28309161  0.82681840     0.10600
H684        H  0.83693136  0.30702530  0.81324127     0.10700
H685        H  0.82199565  0.39801742  0.84239996     0.10400
H686        H  0.77235626  0.37413121  0.85626812     0.11500
H687        H  0.88267811  0.35151808  0.81411733     0.11600
H688        H  0.84232286  0.41638523  0.81370339     0.13500
H689        H  0.86165799  0.44463278  0.78516340     0.10000
H690        H  0.90816793  0.46741154  0.76797388     0.12100
H691        H  0.97748145  0.41059747  0.79961704     0.08700
H692        H  0.93093523  0.38725979  0.81647879     0.11400
loop_ 
_geom_bond_atom_site_label_1 
_geom_bond_atom_site_label_2 
_geom_bond_distance 
_geom_bond_site_symmetry_2 
_ccdc_geom_bond_type 
C1            N2   1.358       .  A
C1            N6   1.355       .  A
C1          C645   1.483       .  S
N2            C3   1.360       .  A
C3            N4   1.363       .  A
C3          C669   1.487       .  S
N4            C5   1.362       .  A
C5            N6   1.357       .  A
C5          C632   1.485       .  S
C7            N8   1.361       .  A
C7           N12   1.360       .  A
C7          C608   1.482       .  S
N8            C9   1.359       .  A
C9           N10   1.356       .  A
C9          C560   1.481       .  S
N10          C11   1.355       .  A
C11          N12   1.357       .  A
C11         C584   1.475       .  S
C13          N14   1.359       .  A
C13          N18   1.354       .  A
C13         C501   1.481       .  S
N14          C15   1.362       .  A
C15          N16   1.362       .  A
C15         C525   1.483       .  S
N16          C17   1.359       .  A
C17          N18   1.354       .  A
C17         C477   1.480       .  S
C19          N20   1.361       .  A
C19          N24   1.361       .  A
C19         C453   1.484       .  S
N20          C21   1.360       .  A
C21          N22   1.355       .  A
C21         C405   1.481       .  S
N22          C23   1.355       .  A
C23          N24   1.358       .  A
C23         C429   1.480       .  S
O25          C28   1.266       .  A
O25         Cd30   2.491       .  S
C26         C597   1.479       .  S
C26          O35   1.265       .  A
C26          O31   1.267       .  A
O27          C33   1.264       .  A
O27         Cd30   2.480       .  S
C28         C464   1.479   1_455  S
C28          O36   1.265       .  A
C29         C680   1.479       .  S
C29          O34   1.264   1_655  A
C29          O32   1.265       .  A
Cd30         O37   2.473       .  S
Cd30         O36   2.445       .  S
Cd30         O35   2.449       .  S
Cd30         O31   2.482       .  S
Cd30         O34   2.472       .  S
Cd30         O32   2.477   1_455  S
C33         C536   1.480       .  S
C33          O37   1.264       .  A
O38          C41   1.268       .  A
O38         Cd43   2.473       .  S
C39         C656   1.478       .  S
C39          O48   1.264       .  A
C39          O44   1.268       .  A
O40          C46   1.266       .  A
O40         Cd43   2.459       .  S
C41         C512   1.477       .  S
C41          O49   1.265       .  A
C42         C573   1.474       .  S
C42          O47   1.265       .  A
C42          O45   1.266       .  A
Cd43         O50   2.433       .  S
Cd43         O49   2.444       .  S
Cd43         O48   2.428   1_565  S
Cd43         O44   2.490   1_565  S
Cd43         O47   2.467   1_565  S
Cd43         O45   2.440   1_565  S
C46         C440   1.472       .  S
C46          O50   1.264       .  A
C51         C488   1.476       .  S
C51          C52   1.412       .  A
C51          C56   1.401   1_556  A
C52         C621   1.482       .  S
C52          C53   1.401   1_556  A
C53          C54   1.403       .  A
C53          H58   1.085       .  S
C54         C392   1.480       .  S
C54          C55   1.414       .  A
C55         C368   1.480       .  S
C55          C56   1.402       .  A
C56          H57   1.086       .  S
C59         C416   1.487   1_455  S
C59          C60   1.416       .  A
C59          C64   1.403   1_455  A
C60         C549   1.482   1_565  S
C60          C61   1.403   1_565  A
C61          C62   1.403   1_545  A
C61          H66   1.086       .  S
C62         C320   1.484   1_565  S
C62          C63   1.415       .  A
C63         C333   1.482   1_455  S
C63          C64   1.404   1_455  A
C64          H65   1.086       .  S
C67          N68   1.358       .  A
C67          N72   1.358       .  A
C67         C285   1.484       .  S
N68          C69   1.358       .  A
C69          N70   1.360       .  A
C69         C261   1.483       .  S
N70          C71   1.360       .  A
C71          N72   1.360       .  A
C71         C381   1.483       .  S
C73          N74   1.357       .  A
C73          N78   1.358       .  A
C73         C248   1.476       .  S
N74          C75   1.357       .  A
C75          N76   1.359       .  A
C75         C213   1.480       .  S
N76          C77   1.359       .  A
C77          N78   1.359       .  A
C77         C309   1.481       .  S
C79          N80   1.358       .  A
C79          N84   1.357       .  A
C79         C189   1.483       .  S
N80          C81   1.360       .  A
C81          N82   1.358       .  A
C81         C357   1.480       .  S
N82          C83   1.357       .  A
C83          N84   1.358       .  A
C83         C176   1.480       .  S
C85          N86   1.360       .  A
C85          N90   1.359       .  A
C85         C117   1.487       .  S
N86          C87   1.361       .  A
C87          N88   1.360       .  A
C87         C344   1.486       .  S
N88          C89   1.358       .  A
C89          N90   1.359       .  A
C89         C141   1.486       .  S
O91          C94   1.265       .  A
O91         Cd96   2.463       .  S
C92         C296   1.479       .  S
C92         O101   1.264       .  A
C92          O97   1.266       .  A
O93          C99   1.265       .  A
O93         Cd96   2.466       .  S
C94         C200   1.479       .  S
C94         O102   1.266       .  A
C95         C152   1.480   1_455  S
C95         O100   1.266       .  A
C95          O98   1.265       .  A
Cd96        O103   2.445       .  S
Cd96        O102   2.471       .  S
Cd96        O101   2.456   1_455  S
Cd96         O97   2.480   1_455  S
Cd96        O100   2.459       .  S
Cd96         O98   2.474       .  S
C99         C224   1.474       .  S
C99         O103   1.264       .  A
O104        C107   1.266   1_545  A
O104       Cd109   2.477   1_545  S
C105        C128   1.479       .  S
C105        O114   1.264       .  A
C105        O110   1.266       .  A
O106        C112   1.268       .  A
O106       Cd109   2.465       .  S
C107        C237   1.474   1_565  S
C107        O115   1.263       .  A
C108        C272   1.477       .  S
C108        O113   1.266       .  A
C108        O111   1.264       .  A
Cd109       O116   2.420       .  S
Cd109       O115   2.444       .  S
Cd109       O114   2.445       .  S
Cd109       O110   2.486       .  S
Cd109       O113   2.490   1_565  S
Cd109       O111   2.430   1_565  S
C112        C165   1.474       .  S
C112        O116   1.266       .  A
C117        C118   1.406       .  A
C117        C122   1.407       .  A
C118        C119   1.400       .  A
C118        H131   1.084       .  S
C119        C120   1.405       .  A
C119        H132   1.083       .  S
C120        C121   1.408       .  A
C120        C123   1.491       .  S
C121        C122   1.398       .  A
C121        H133   1.082       .  S
C122        H134   1.083       .  S
C123        C124   1.348       .  D
C123        H135   1.086       .  S
C124        C125   1.489       .  S
C124        H136   1.086       .  S
C125        C126   1.403       .  A
C125        C130   1.410       .  A
C126        C127   1.395       .  A
C126        H137   1.083       .  S
C127        C128   1.404       .  A
C127        H138   1.083       .  S
C128        C129   1.405       .  A
C129        C130   1.402       .  A
C129        H139   1.083       .  S
C130        H140   1.080       .  S
C141        C142   1.406       .  A
C141        C146   1.408       .  A
C142        C143   1.396       .  A
C142        H155   1.083       .  S
C143        C144   1.402       .  A
C143        H156   1.084       .  S
C144        C145   1.408       .  A
C144        C147   1.486       .  S
C145        C146   1.402       .  A
C145        H157   1.081       .  S
C146        H158   1.083       .  S
C147        C148   1.348       .  D
C147        H159   1.086       .  S
C148        C149   1.488       .  S
C148        H160   1.086       .  S
C149        C150   1.404       .  A
C149        C154   1.408       .  A
C150        C151   1.401       .  A
C150        H161   1.084       .  S
C151        C152   1.407       .  A
C151        H162   1.082   1_655  S
C152        C153   1.403       .  A
C153        C154   1.396       .  A
C153        H163   1.084       .  S
C154        H164   1.080       .  S
C165        C166   1.403       .  A
C165        C170   1.405       .  A
C166        C167   1.392       .  A
C166        H179   1.084       .  S
C167        C168   1.402       .  A
C167        H180   1.083       .  S
C168        C169   1.408       .  A
C168        C171   1.482       .  S
C169        C170   1.399       .  A
C169        H181   1.082       .  S
C170        H182   1.082       .  S
C171        C172   1.346       .  D
C171        H183   1.085       .  S
C172        C173   1.484       .  S
C172        H184   1.084       .  S
C173        C174   1.403       .  A
C173        C178   1.407       .  A
C174        C175   1.399       .  A
C174        H185   1.083       .  S
C175        C176   1.407       .  A
C175        H186   1.084       .  S
C176        C177   1.404       .  A
C177        C178   1.393       .  A
C177        H187   1.082       .  S
C178        H188   1.082       .  S
C189        C190   1.406       .  A
C189        C194   1.406       .  A
C190        C191   1.396       .  A
C190        H203   1.083       .  S
C191        C192   1.402       .  A
C191        H204   1.084       .  S
C192        C193   1.408       .  A
C192        C195   1.484       .  S
C193        C194   1.399       .  A
C193        H205   1.082       .  S
C194        H206   1.083       .  S
C195        C196   1.346       .  D
C195        H207   1.088       .  S
C196        C197   1.485       .  S
C196        H208   1.088       .  S
C197        C198   1.403       .  A
C197        C202   1.408       .  A
C198        C199   1.398       .  A
C198        H209   1.086       .  S
C199        C200   1.405       .  A
C199        H210   1.081       .  S
C200        C201   1.404       .  A
C201        C202   1.398       .  A
C201        H211   1.084       .  S
C202        H212   1.082       .  S
C213        C214   1.406       .  A
C213        C218   1.406       .  A
C214        C215   1.395       .  A
C214        H227   1.084       .  S
C215        C216   1.403       .  A
C215        H228   1.082       .  S
C216        C217   1.407       .  A
C216        C219   1.482       .  S
C217        C218   1.396       .  A
C217        H229   1.083       .  S
C218        H230   1.082       .  S
C219        C220   1.347       .  D
C219        H231   1.084       .  S
C220        C221   1.484       .  S
C220        H232   1.085       .  S
C221        C222   1.405       .  A
C221        C226   1.407       .  A
C222        C223   1.397       .  A
C222        H233   1.082       .  S
C223        C224   1.403       .  A
C223        H234   1.085       .  S
C224        C225   1.404       .  A
C225        C226   1.394       .  A
C225        H235   1.081       .  S
C226        H236   1.083       .  S
C237        C238   1.404   1_545  A
C237        C242   1.404       .  A
C238        C239   1.394   1_565  A
C238        H251   1.084       .  S
C239        C240   1.401       .  A
C239        H252   1.083   1_545  S
C240        C241   1.406       .  A
C240        C243   1.477       .  S
C241        C242   1.398       .  A
C241        H253   1.083       .  S
C242        H254   1.083       .  S
C243        C244   1.344       .  D
C243        H255   1.085       .  S
C244        C245   1.481       .  S
C244        H256   1.086       .  S
C245        C246   1.402       .  A
C245        C250   1.406       .  A
C246        C247   1.396       .  A
C246        H257   1.082       .  S
C247        C248   1.405       .  A
C247        H258   1.084       .  S
C248        C249   1.404       .  A
C249        C250   1.396       .  A
C249        H259   1.082       .  S
C250        H260   1.082       .  S
C261        C262   1.406       .  A
C261        C266   1.406       .  A
C262        C263   1.396       .  A
C262        H275   1.082       .  S
C263        C264   1.404       .  A
C263        H276   1.085       .  S
C264        C265   1.408       .  A
C264        C267   1.488       .  S
C265        C266   1.398       .  A
C265        H277   1.082       .  S
C266        H278   1.083       .  S
C267        C268   1.349       .  D
C267        H279   1.084       .  S
C268        C269   1.486       .  S
C268        H280   1.082       .  S
C269        C270   1.405       .  A
C269        C274   1.406       .  A
C270        C271   1.401       .  A
C270        H281   1.082       .  S
C271        C272   1.405       .  A
C271        H282   1.085       .  S
C272        C273   1.404       .  A
C273        C274   1.393       .  A
C273        H283   1.083       .  S
C274        H284   1.082       .  S
C285        C286   1.406       .  A
C285        C290   1.406       .  A
C286        C287   1.397       .  A
C286        H299   1.083       .  S
C287        C288   1.403       .  A
C287        H300   1.082       .  S
C288        C289   1.407       .  A
C288        C291   1.487       .  S
C289        C290   1.400       .  A
C289        H301   1.080       .  S
C290        H302   1.083       .  S
C291        C292   1.350       .  D
C291        H303   1.080       .  S
C292        C293   1.488       .  S
C292        H304   1.079       .  S
C293        C294   1.406       .  A
C293        C298   1.406       .  A
C294        C295   1.401       .  A
C294        H305   1.079       .  S
C295        C296   1.404       .  A
C295        H306   1.085       .  S
C296        C297   1.405       .  A
C297        C298   1.397       .  A
C297        H307   1.080       .  S
C298        H308   1.084       .  S
C309        C310   1.405       .  A
C309        C314   1.405       .  A
C310        C311   1.398       .  A
C310        H323   1.082       .  S
C311        C312   1.403       .  A
C311        H324   1.083       .  S
C312        C313   1.409       .  A
C312        C315   1.489       .  S
C313        C314   1.399       .  A
C313        H325   1.081       .  S
C314        H326   1.083       .  S
C315        C316   1.348       .  D
C315        H327   1.083       .  S
C316        C317   1.490       .  S
C316        H328   1.084       .  S
C317        C318   1.404       .  A
C317        C322   1.411       .  A
C318        C319   1.396       .  A
C318        H329   1.085       .  S
C319        C320   1.403       .  A
C319        H330   1.082   1_545  S
C320        C321   1.403       .  A
C321        C322   1.400       .  A
C321        H331   1.086       .  S
C322        H332   1.080       .  S
C333        C334   1.401       .  A
C333        C338   1.404   1_655  A
C334        C335   1.394       .  A
C334        H347   1.084       .  S
C335        C336   1.404       .  A
C335        H348   1.083       .  S
C336        C337   1.412   1_655  A
C336        C339   1.491       .  S
C337        C338   1.401       .  A
C337        H349   1.079       .  S
C338        H350   1.084       .  S
C339        C340   1.348       .  D
C339        H351   1.085       .  S
C340        C341   1.488       .  S
C340        H352   1.083       .  S
C341        C342   1.402       .  A
C341        C346   1.408       .  A
C342        C343   1.398       .  A
C342        H353   1.083       .  S
C343        C344   1.407       .  A
C343        H354   1.083       .  S
C344        C345   1.407       .  A
C345        C346   1.399       .  A
C345        H355   1.082       .  S
C346        H356   1.082       .  S
C357        C358   1.404       .  A
C357        C362   1.407       .  A
C358        C359   1.395       .  A
C358        H371   1.083       .  S
C359        C360   1.403       .  A
C359        H372   1.083       .  S
C360        C361   1.407       .  A
C360        C363   1.484       .  S
C361        C362   1.398       .  A
C361        H373   1.081       .  S
C362        H374   1.082       .  S
C363        C364   1.348       .  D
C363        H375   1.083       .  S
C364        C365   1.487       .  S
C364        H376   1.083       .  S
C365        C366   1.406       .  A
C365        C370   1.408       .  A
C366        C367   1.398       .  A
C366        H377   1.081       .  S
C367        C368   1.403       .  A
C367        H378   1.084       .  S
C368        C369   1.402       .  A
C369        C370   1.395       .  A
C369        H379   1.081       .  S
C370        H380   1.082       .  S
C381        C382   1.405       .  A
C381        C386   1.407       .  A
C382        C383   1.395       .  A
C382        H395   1.081       .  S
C383        C384   1.402       .  A
C383        H396   1.083       .  S
C384        C385   1.408       .  A
C384        C387   1.484       .  S
C385        C386   1.401       .  A
C385        H397   1.081       .  S
C386        H398   1.082       .  S
C387        C388   1.347       .  D
C387        H399   1.084       .  S
C388        C389   1.486       .  S
C388        H400   1.084       .  S
C389        C390   1.405       .  A
C389        C394   1.408       .  A
C390        C391   1.400       .  A
C390        H401   1.084       .  S
C391        C392   1.404       .  A
C391        H402   1.083       .  S
C392        C393   1.401       .  A
C393        C394   1.394       .  A
C393        H403   1.084       .  S
C394        H404   1.081       .  S
C405        C406   1.406       .  A
C405        C410   1.405       .  A
C406        C407   1.396       .  A
C406        H419   1.083       .  S
C407        C408   1.402       .  A
C407        H420   1.082       .  S
C408        C409   1.409       .  A
C408        C411   1.488       .  S
C409        C410   1.399       .  A
C409        H421   1.080       .  S
C410        H422   1.082       .  S
C411        C412   1.347       .  D
C411        H423   1.084       .  S
C412        C413   1.488       .  S
C412        H424   1.084       .  S
C413        C414   1.404   1_655  A
C413        C418   1.409       .  A
C414        C415   1.397       .  A
C414        H425   1.081       .  S
C415        C416   1.403   1_455  A
C415        H426   1.084       .  S
C416        C417   1.405       .  A
C417        C418   1.400       .  A
C417        H427   1.082       .  S
C418        H428   1.081       .  S
C429        C430   1.406       .  A
C429        C434   1.405       .  A
C430        C431   1.393       .  A
C430        H443   1.083       .  S
C431        C432   1.400       .  A
C431        H444   1.084       .  S
C432        C433   1.408       .  A
C432        C435   1.480       .  S
C433        C434   1.398       .  A
C433        H445   1.082       .  S
C434        H446   1.083       .  S
C435        C436   1.344       .  D
C435        H447   1.086       .  S
C436        C437   1.481       .  S
C436        H448   1.086       .  S
C437        C438   1.402       .  A
C437        C442   1.409       .  A
C438        C439   1.393       .  A
C438        H449   1.084       .  S
C439        C440   1.403       .  A
C439        H450   1.083       .  S
C440        C441   1.403       .  A
C441        C442   1.397       .  A
C441        H451   1.083       .  S
C442        H452   1.082       .  S
C453        C454   1.406       .  A
C453        C458   1.407       .  A
C454        C455   1.395       .  A
C454        H467   1.082       .  S
C455        C456   1.402       .  A
C455        H468   1.085       .  S
C456        C457   1.408       .  A
C456        C459   1.484       .  S
C457        C458   1.400       .  A
C457        H469   1.079       .  S
C458        H470   1.085       .  S
C459        C460   1.347       .  D
C459        H471   1.088       .  S
C460        C461   1.487       .  S
C460        H472   1.087       .  S
C461        C462   1.405       .  A
C461        C466   1.407       .  A
C462        C463   1.402       .  A
C462        H473   1.081       .  S
C463        C464   1.405       .  A
C463        H474   1.084   1_655  S
C464        C465   1.404       .  A
C465        C466   1.395       .  A
C465        H475   1.083       .  S
C466        H476   1.081       .  S
C477        C478   1.406       .  A
C477        C482   1.405       .  A
C478        C479   1.393       .  A
C478        H491   1.084       .  S
C479        C480   1.401       .  A
C479        H492   1.084       .  S
C480        C481   1.408       .  A
C480        C483   1.482       .  S
C481        C482   1.400       .  A
C481        H493   1.081       .  S
C482        H494   1.083       .  S
C483        C484   1.346       .  D
C483        H495   1.084       .  S
C484        C485   1.486       .  S
C484        H496   1.085       .  S
C485        C486   1.405       .  A
C485        C490   1.409       .  A
C486        C487   1.399       .  A
C486        H497   1.082       .  S
C487        C488   1.402       .  A
C487        H498   1.083       .  S
C488        C489   1.400       .  A
C489        C490   1.394       .  A
C489        H499   1.083       .  S
C490        H500   1.080       .  S
C501        C502   1.407       .  A
C501        C506   1.404       .  A
C502        C503   1.395       .  A
C502        H515   1.082       .  S
C503        C504   1.401       .  A
C503        H516   1.083       .  S
C504        C505   1.409       .  A
C504        C507   1.485       .  S
C505        C506   1.399       .  A
C505        H517   1.081       .  S
C506        H518   1.083       .  S
C507        C508   1.345       .  D
C507        H519   1.086       .  S
C508        C509   1.482       .  S
C508        H520   1.085       .  S
C509        C510   1.401       .  A
C509        C514   1.408       .  A
C510        C511   1.396       .  A
C510        H521   1.084       .  S
C511        C512   1.405       .  A
C511        H522   1.082       .  S
C512        C513   1.404       .  A
C513        C514   1.399       .  A
C513        H523   1.084       .  S
C514        H524   1.081       .  S
C525        C526   1.407       .  A
C525        C530   1.405       .  A
C526        C527   1.399       .  A
C526        H539   1.081       .  S
C527        C528   1.402       .  A
C527        H540   1.086       .  S
C528        C529   1.407       .  A
C528        C531   1.484       .  S
C529        C530   1.398       .  A
C529        H541   1.081       .  S
C530        H542   1.084       .  S
C531        C532   1.347       .  D
C531        H543   1.087       .  S
C532        C533   1.485       .  S
C532        H544   1.087       .  S
C533        C534   1.404       .  A
C533        C538   1.406       .  A
C534        C535   1.399       .  A
C534        H545   1.083       .  S
C535        C536   1.405       .  A
C535        H546   1.083       .  S
C536        C537   1.405       .  A
C537        C538   1.399       .  A
C537        H547   1.083       .  S
C538        H548   1.082       .  S
C549        C550   1.404       .  A
C549        C554   1.402       .  A
C550        C551   1.397       .  A
C550        H563   1.083       .  S
C551        C552   1.404       .  A
C551        H564   1.084       .  S
C552        C553   1.410       .  A
C552        C555   1.487       .  S
C553        C554   1.397       .  A
C553        H565   1.079       .  S
C554        H566   1.085   1_545  S
C555        C556   1.346       .  D
C555        H567   1.085       .  S
C556        C557   1.486       .  S
C556        H568   1.085       .  S
C557        C558   1.402       .  A
C557        C562   1.409       .  A
C558        C559   1.395       .  A
C558        H569   1.083       .  S
C559        C560   1.406       .  A
C559        H570   1.083       .  S
C560        C561   1.405       .  A
C561        C562   1.399       .  A
C561        H571   1.083       .  S
C562        H572   1.080       .  S
C573        C574   1.406       .  A
C573        C578   1.403       .  A
C574        C575   1.400       .  A
C574        H587   1.085       .  S
C575        C576   1.403       .  A
C575        H588   1.081       .  S
C576        C577   1.404       .  A
C576        C579   1.478       .  S
C577        C578   1.392       .  A
C577        H589   1.083       .  S
C578        H590   1.082       .  S
C579        C580   1.343       .  D
C579        H591   1.086       .  S
C580        C581   1.475       .  S
C580        H592   1.088       .  S
C581        C582   1.400       .  A
C581        C586   1.406       .  A
C582        C583   1.393       .  A
C582        H593   1.084       .  S
C583        C584   1.404       .  A
C583        H594   1.083       .  S
C584        C585   1.405       .  A
C585        C586   1.399       .  A
C585        H595   1.084       .  S
C586        H596   1.082       .  S
C597        C598   1.405       .  A
C597        C602   1.404       .  A
C598        C599   1.400       .  A
C598        H611   1.083       .  S
C599        C600   1.404       .  A
C599        H612   1.083       .  S
C600        C601   1.407       .  A
C600        C603   1.485       .  S
C601        C602   1.395       .  A
C601        H613   1.081       .  S
C602        H614   1.083       .  S
C603        C604   1.348       .  D
C603        H615   1.082       .  S
C604        C605   1.487       .  S
C604        H616   1.085       .  S
C605        C606   1.403       .  A
C605        C610   1.409       .  A
C606        C607   1.395       .  A
C606        H617   1.085       .  S
C607        C608   1.406       .  A
C607        H618   1.083       .  S
C608        C609   1.406       .  A
C609        C610   1.399       .  A
C609        H619   1.085       .  S
C610        H620   1.078       .  S
C621        C622   1.403       .  A
C621        C626   1.403       .  A
C622        C623   1.397       .  A
C622        H635   1.082       .  S
C623        C624   1.404       .  A
C623        H636   1.085       .  S
C624        C625   1.409       .  A
C624        C627   1.488       .  S
C625        C626   1.396       .  A
C625        H637   1.081       .  S
C626        H638   1.083       .  S
C627        C628   1.349       .  D
C627        H639   1.084       .  S
C628        C629   1.489       .  S
C628        H640   1.084       .  S
C629        C630   1.405       .  A
C629        C634   1.407       .  A
C630        C631   1.399       .  A
C630        H641   1.084       .  S
C631        C632   1.405       .  A
C631        H642   1.081       .  S
C632        C633   1.408       .  A
C633        C634   1.397       .  A
C633        H643   1.082       .  S
C634        H644   1.081       .  S
C645        C646   1.405       .  A
C645        C650   1.407       .  A
C646        C647   1.398       .  A
C646        H659   1.083       .  S
C647        C648   1.404       .  A
C647        H660   1.083       .  S
C648        C649   1.407       .  A
C648        C651   1.485       .  S
C649        C650   1.397       .  A
C649        H661   1.081       .  S
C650        H662   1.082       .  S
C651        C652   1.348       .  D
C651        H663   1.085       .  S
C652        C653   1.485       .  S
C652        H664   1.084       .  S
C653        C654   1.405       .  A
C653        C658   1.406       .  A
C654        C655   1.401       .  A
C654        H665   1.083       .  S
C655        C656   1.404       .  A
C655        H666   1.084       .  S
C656        C657   1.404       .  A
C657        C658   1.394       .  A
C657        H667   1.083       .  S
C658        H668   1.081       .  S
C669        C670   1.407       .  A
C669        C674   1.408       .  A
C670        C671   1.398       .  A
C670        H683   1.084       .  S
C671        C672   1.402       .  A
C671        H684   1.081       .  S
C672        C673   1.405       .  A
C672        C675   1.484       .  S
C673        C674   1.402       .  A
C673        H685   1.083       .  S
C674        H686   1.081       .  S
C675        C676   1.346       .  D
C675        H687   1.085       .  S
C676        C677   1.484       .  S
C676        H688   1.085       .  S
C677        C678   1.404       .  A
C677        C682   1.405       .  A
C678        C679   1.399       .  A
C678        H689   1.082       .  S
C679        C680   1.404       .  A
C679        H690   1.084       .  S
C680        C681   1.406       .  A
C681        C682   1.400       .  A
C681        H691   1.082       .  S
C682        H692   1.083       .  S
