geometry optimzed in LAMMPS
_audit_creation_date              2020-11-30 
_audit_creation_method            'lammps2cif' 
_symmetry_space_group_name_H-M    'P1' 
_symmetry_Int_Tables_number       1 
_symmetry_cell_setting            triclinic 
loop_ 
_symmetry_equiv_pos_as_xyz 
  x,y,z 
_cell_length_a                    41.54079881 
_cell_length_b                    35.34052757924112 
_cell_length_c                    45.62133986879307 
_cell_angle_alpha                 89.7743456435758 
_cell_angle_beta                  90.62778233423556 
_cell_angle_gamma                 89.92192729221988 
loop_ 
_atom_site_label 
_atom_site_type_symbol 
_atom_site_fract_x 
_atom_site_fract_y 
_atom_site_fract_z 
_atom_site_charge 
C1          C  0.76588987  0.01833112  0.42593766     0.03300
C2          C  0.74301429  0.02003462  0.40321647    -0.12800
C3          C  0.73186720  0.98699618  0.38989004     0.00800
C4          C  0.74875195  0.45233227  0.39653414    -0.11400
C5          C  0.77219536  0.44960417  0.41870029     0.03300
C6          C  0.78545809  0.48269240  0.43071277    -0.10800
H7          H  0.73384239  0.04721797  0.39580195     0.08900
H8          H  0.73889970  0.42684035  0.38681362     0.06400
H9          H  0.80373356  0.48069731  0.44777940     0.06300
O10         O  0.61611025  0.45330766  0.20537535    -0.57600
C11         C  0.61230424  0.07052138  0.22008444     0.75000
O12         O  0.54653531  0.00203774  0.27269672    -0.58800
C13         C  0.61498694  0.42294871  0.22017231     0.75000
C14         C  0.64141495  0.99817666  0.29398210     0.77400
Cd15       Cd  0.59769139  0.99860250  0.24576700     1.37500
O16         O  0.61230212  0.04048436  0.20500522    -0.57600
O17         O  0.65242211  0.49537964  0.26660130    -0.56400
C18         C  0.52892152  0.00091786  0.24990137     0.77300
O19         O  0.61184853  0.99080499  0.29751450    -0.58800
O20         O  0.60493892  0.06712237  0.24681290    -0.57200
O21         O  0.60501589  0.42566289  0.24614865    -0.57200
O22         O  0.54342541  0.99853813  0.22577879    -0.56400
C23         C  0.65727714  0.21230562  0.17290901     0.03300
C24         C  0.68094947  0.21181077  0.15125720    -0.12800
C25         C  0.69307030  0.24582235  0.14009802     0.00800
C26         C  0.68155364  0.28040775  0.15049599    -0.11400
C27         C  0.65751410  0.28114852  0.17179444     0.03300
C28         C  0.64546412  0.24701334  0.18288852    -0.10800
H29         H  0.68997559  0.18507458  0.14314363     0.08900
H30         H  0.69132729  0.30662418  0.14200325     0.06400
H31         H  0.62674009  0.24745113  0.19925197     0.06300
O32         O  0.81023511  0.19244024  0.45571730    -0.57600
C33         C  0.80860307  0.30326689  0.46398250     0.75000
O34         O  0.81294037  0.22695232  0.04937375    -0.58800
C35         C  0.80566597  0.16362945  0.47171120     0.75000
C36         C  0.89436149  0.23248923  0.00263549     0.77400
Cd37       Cd  0.82570807  0.23196371  0.99682372     1.37500
O38         O  0.78930319  0.27560276  0.46409546    -0.57600
O39         O  0.87714481  0.21975989  0.48328818    -0.56400
C40         C  0.78448562  0.23939912  0.04634932     0.77300
O41         O  0.87663065  0.23748017  0.02469566    -0.58800
O42         O  0.83497631  0.29919482  0.98715798    -0.57200
O43         O  0.81221521  0.16441933  0.99865931    -0.57200
O44         O  0.77576446  0.24850671  0.02063909    -0.56400
C45         C  0.26468170  0.28437035  0.18734037     0.03300
C46         C  0.27470987  0.24900027  0.19827979    -0.12800
C47         C  0.26274958  0.21547939  0.18578134     0.00800
C48         C  0.24098912  0.21758188  0.16216274    -0.11400
C49         C  0.23013952  0.25259275  0.15178548     0.03300
C50         C  0.24206796  0.28587679  0.16430042    -0.10800
H51         H  0.29191552  0.24756028  0.21627830     0.08900
H52         H  0.23287070  0.19189510  0.15150807     0.06400
H53         H  0.23359248  0.31300252  0.15612638     0.06300
O54         O  0.11156028  0.31330429  0.46253639    -0.57600
C55         C  0.11785296  0.20014947  0.47508163     0.75000
O56         O  0.11268848  0.25824649  0.05602591    -0.58800
C57         C  0.11119222  0.34292819  0.47800446     0.75000
C58         C  0.03188606  0.25506604  0.00527988     0.77400
Cd59       Cd  0.10050417  0.26359425  0.00341707     1.37500
O60         O  0.11369661  0.22996874  0.45998660    -0.57600
O61         O  0.04486071  0.24896627  0.48427889    -0.56400
C62         C  0.14279993  0.26240242  0.05302977     0.77300
O63         O  0.04786114  0.26442982  0.02788840    -0.58800
O64         O  0.11451266  0.19717680  0.00518932    -0.57200
O65         O  0.10172045  0.33320834  0.00420730    -0.57200
O66         O  0.15271014  0.26734110  0.02718908    -0.56400
C67         C  0.15400048  0.48724919  0.43233831     0.03300
C68         C  0.14353382  0.52168055  0.44423010    -0.12800
C69         C  0.15739203  0.05530821  0.43053401     0.00800
C70         C  0.18032899  0.05396656  0.40833694    -0.11400
C71         C  0.18900123  0.52210393  0.39934786     0.03300
C72         C  0.17658936  0.48767516  0.40965117    -0.10800
H73         H  0.12706679  0.02277993  0.45914302     0.08900
H74         H  0.18929356  0.07997818  0.39877373     0.06400
H75         H  0.18485723  0.46128245  0.40031186     0.06300
O76         O  0.30424441  0.45665383  0.21923007    -0.57600
C77         C  0.30520107  0.06842227  0.22509214     0.75000
O78         O  0.31111530  0.50635048  0.30940815    -0.58800
C79         C  0.30404369  0.42797276  0.23591561     0.75000
C80         C  0.39063139  0.49834909  0.25728349     0.77400
Cd81       Cd  0.32159677  0.50204797  0.25623575     1.37500
O82         O  0.29101559  0.03820316  0.21767055    -0.57600
O83         O  0.37391547  0.49034580  0.23482652    -0.56400
C84         C  0.28144697  0.51385532  0.30625399     0.77300
O85         O  0.37513999  0.50811645  0.27977488    -0.58800
O86         O  0.32684735  0.06559871  0.24464549    -0.57200
O87         O  0.31188559  0.43355621  0.26242735    -0.57200
O88         O  0.27109230  0.51633758  0.28016764    -0.56400
C89         C  0.22859797  0.53395956  0.32566518    -0.26100
C90         C  0.25937202  0.51871812  0.33126529    -0.14200
C91         C  0.26750963  0.50682344  0.36007572     0.36400
C92         C  0.24414194  0.50868899  0.38208868    -0.25600
C93         C  0.21317700  0.52255219  0.37598520    -0.14800
C94         C  0.20561086  0.53616506  0.34766197     0.37500
N95         N  0.17447674  0.55125952  0.34041194    -0.89100
H96         H  0.22207581  0.54379288  0.30386205     0.21400
H97         H  0.24991027  0.49883377  0.40405469     0.18600
N98         N  0.30313379  0.99875870  0.36471138    -0.88100
H99         H  0.16469244  0.05400328  0.34742889     0.36000
H100        H  0.15717916  0.00683462  0.34719267     0.41100
H101        H  0.30138234  0.46630362  0.35620353     0.40700
H102        H  0.30138399  0.48656000  0.38929842     0.35600
C103        C  0.12787120  0.42433068  0.42536624    -0.26100
C104        C  0.14215661  0.45080810  0.44428092    -0.14200
C105        C  0.14554090  0.44210118  0.47436354     0.36400
C106        C  0.13413631  0.40728488  0.48499666    -0.25600
C107        C  0.12022735  0.38049310  0.46605809    -0.14800
C108        C  0.11673463  0.38930101  0.43594652     0.37500
N109        N  0.10167097  0.36284793  0.41627889    -0.89100
H110        H  0.12519969  0.43118576  0.40229348     0.18600
H111        H  0.13410849  0.39762058  0.00881931     0.18600
N112        N  0.16139840  0.46821557  0.49381724    -0.88100
H113        H  0.10121462  0.37352678  0.39488081     0.36000
H114        H  0.07766849  0.35997890  0.42260818     0.41100
H115        H  0.18530842  0.47066200  0.48711860     0.40700
H116        H  0.15499442  0.45713945  0.01531075     0.35600
C117        C  0.12842263  0.11628612  0.42394919    -0.26100
C118        C  0.14687465  0.09213226  0.44190852    -0.14200
C119        C  0.15638388  0.10410279  0.47013140     0.36400
C120        C  0.14689564  0.13959824  0.48004997    -0.25600
C121        C  0.12821745  0.16387909  0.46233598    -0.14800
C122        C  0.11893758  0.15201527  0.43386178     0.37500
N123        N  0.09919338  0.17494324  0.41494309    -0.89100
H124        H  0.12122712  0.10719247  0.40217899     0.18600
H125        H  0.14700430  0.13766550  0.00992785     0.18600
N126        N  0.17634112  0.08116955  0.48888852    -0.88100
H127        H  0.11148962  0.19996284  0.41027647     0.36000
H128        H  0.07791788  0.18151357  0.42589002     0.41100
H129        H  0.19746684  0.07458511  0.47773405     0.40700
H130        H  0.15602257  0.04618283  0.00146687     0.35600
C131        C  0.27515009  0.32594202  0.23037961    -0.26100
C132        C  0.27722904  0.31997753  0.20007023    -0.14200
C133        C  0.28976773  0.34874666  0.18198551     0.36400
C134        C  0.29831396  0.38359782  0.19435561    -0.25600
C135        C  0.29536166  0.39013619  0.22453662    -0.14800
C136        C  0.28404488  0.36077645  0.24287075     0.37500
N137        N  0.28081356  0.36661588  0.27387061    -0.89100
H138        H  0.26551354  0.30376516  0.24419608     0.18600
H139        H  0.30759252  0.40574266  0.18030472     0.18600
N140        N  0.29391614  0.34235325  0.15113977    -0.88100
H141        H  0.27273709  0.34195072  0.28415701     0.36000
H142        H  0.26289488  0.38701343  0.27680923     0.41100
H143        H  0.31103662  0.32087394  0.14889023     0.40700
H144        H  0.30335113  0.36639185  0.14094683     0.35600
C145        C  0.30669033  0.17022139  0.19818971    -0.26100
C146        C  0.27362820  0.17799750  0.19644624    -0.14200
C147        C  0.25127378  0.14931275  0.20318506     0.36400
C148        C  0.26250654  0.11321538  0.21099223    -0.25600
C149        C  0.29556466  0.10542980  0.21295998    -0.14800
C150        C  0.31804551  0.13415343  0.20591725     0.37500
N151        N  0.35227385  0.12774548  0.20554378    -0.89100
H152        H  0.32386757  0.19204855  0.19251691     0.18600
H153        H  0.24534412  0.09138745  0.21670675     0.18600
N154        N  0.21729769  0.15722222  0.20270166    -0.88100
H155        H  0.36028193  0.13431871  0.18448110     0.36000
H156        H  0.35794378  0.09924948  0.20855756     0.41100
H157        H  0.21281975  0.17726651  0.21896493     0.40700
H158        H  0.20413712  0.13307178  0.20820026     0.35600
C159        C  0.21786208  0.27145216  0.10077354    -0.26100
C160        C  0.20748832  0.25460073  0.12681287    -0.14200
C161        C  0.17570007  0.24085265  0.12874271     0.36400
C162        C  0.15493614  0.24430773  0.10460847    -0.25600
C163        C  0.16529207  0.26087612  0.07831691    -0.14800
C164        C  0.19714384  0.27481683  0.07643761     0.37500
N165        N  0.20831707  0.29264687  0.05005514    -0.89100
H166        H  0.24227750  0.28208525  0.09950715     0.18600
H167        H  0.13063230  0.23348495  0.10635763     0.18600
N168        N  0.16365640  0.22407836  0.15507753    -0.88100
H169        H  0.23252718  0.30034142  0.05218607     0.36000
H170        H  0.19533937  0.31779831  0.04726976     0.41100
H171        H  0.16692040  0.24319956  0.17226992     0.40700
H172        H  0.17684396  0.19957225  0.15975238     0.35600
C173        C  0.94353675  0.25942275  0.02590413    -0.26100
C174        C  0.92975261  0.23577663  0.00453007    -0.14200
C175        C  0.94696617  0.21638205  0.48978993     0.36400
C176        C  0.98032211  0.22289171  0.49046094    -0.25600
C177        C  0.99672130  0.24898995  0.00571093    -0.14800
C178        C  0.97679709  0.26667928  0.02646542     0.37500
N179        N  0.99015116  0.29286189  0.04733921    -0.89100
H180        H  0.92813921  0.27354629  0.04146748     0.18600
H181        H  0.99587696  0.20547832  0.47716597     0.18600
N182        N  0.93394350  0.18651185  0.47193667    -0.88100
H183        H  0.97222426  0.30328027  0.06105853     0.36000
H184        H  0.99887563  0.31609217  0.03559542     0.41100
H185        H  0.92393789  0.16640796  0.48603056     0.40700
H186        H  0.95220767  0.17268189  0.46057344     0.35600
C187        C  0.74953833  0.24334661  0.12310327    -0.26100
C188        C  0.71660346  0.24524016  0.11636000    -0.14200
C189        C  0.70622745  0.24651135  0.08692930     0.36400
C190        C  0.72885436  0.24506452  0.06465524    -0.25600
C191        C  0.76195303  0.24246095  0.07107965    -0.14800
C192        C  0.77250063  0.24226703  0.10068335     0.37500
N193        N  0.80627177  0.24135154  0.10788381    -0.89100
H194        H  0.75726379  0.24287718  0.14587103     0.18600
H195        H  0.72034856  0.24541335  0.04211416     0.18600
N196        N  0.67277539  0.24897356  0.07914537    -0.88100
H197        H  0.80978258  0.24091279  0.13062285     0.36000
H198        H  0.81633938  0.26663612  0.10036295     0.41100
H199        H  0.66334247  0.27360917  0.08833904     0.40700
H200        H  0.66089970  0.22571449  0.08821209     0.35600
C201        C  0.44061971  0.00170829  0.22780196    -0.26100
C202        C  0.42628734  0.49660051  0.25650063    -0.14200
C203        C  0.44603818  0.49736567  0.28199943     0.36400
C204        C  0.47950827  0.49554635  0.27934305    -0.25600
C205        C  0.49412987  0.49295743  0.25180559    -0.14800
C206        C  0.47411010  0.00288276  0.22567295     0.37500
N207        N  0.48831467  0.00531853  0.19724769    -0.89100
H208        H  0.42652483  0.00217050  0.20767604     0.18600
H209        H  0.49419206  0.49650271  0.29910697     0.18600
N210        N  0.43306333  0.49951479  0.31089943    -0.88100
H211        H  0.47959812  0.02973124  0.18687360     0.36000
H212        H  0.48072538  0.98192472  0.18501054     0.41100
H213        H  0.41743998  0.47669204  0.31399450     0.40700
H214        H  0.42037086  0.52488066  0.31289499     0.35600
C215        C  0.63148898  0.14950646  0.16634196    -0.26100
C216        C  0.64487768  0.17657621  0.18523717    -0.14200
C217        C  0.64619840  0.16946614  0.21565595     0.36400
C218        C  0.63429970  0.13513153  0.22655393    -0.25600
C219        C  0.62162144  0.10753054  0.20762871    -0.14800
C220        C  0.61952750  0.11512565  0.17724259     0.37500
N221        N  0.60501377  0.08817909  0.15763960    -0.89100
H222        H  0.63007925  0.15546204  0.14303949     0.18600
H223        H  0.63595643  0.12939286  0.24987273     0.18600
N224        N  0.66034201  0.19674455  0.23523352    -0.88100
H225        H  0.60559210  0.09808015  0.13602287     0.36000
H226        H  0.58071732  0.08594148  0.16314789     0.41100
H227        H  0.68472032  0.19905930  0.23006799     0.40700
H228        H  0.65935740  0.18721350  0.25693332     0.35600
C229        C  0.62475833  0.38114479  0.17746294    -0.26100
C230        C  0.62526453  0.38630667  0.20797506    -0.14200
C231        C  0.63612954  0.35661634  0.22645560     0.36400
C232        C  0.64613755  0.32249543  0.21399844    -0.25600
C233        C  0.64582769  0.31743215  0.18356569    -0.14800
C234        C  0.63466568  0.34679953  0.16504383     0.37500
N235        N  0.63304611  0.34142875  0.13383358    -0.89100
H236        H  0.61622667  0.40379371  0.16329574     0.18600
H237        H  0.65497546  0.29992114  0.22809873     0.18600
N238        N  0.63775100  0.36141683  0.25773270    -0.88100
H239        H  0.62422336  0.36575959  0.12338224     0.36000
H240        H  0.61637684  0.31991520  0.12966196     0.41100
H241        H  0.65524064  0.38193527  0.26215988     0.40700
H242        H  0.64560315  0.33654974  0.26805644     0.35600
C243        C  0.78932967  0.08222576  0.41926557    -0.26100
C244        C  0.77809198  0.05420357  0.43853685    -0.14200
C245        C  0.77580106  0.06261335  0.46871343     0.36400
C246        C  0.78541776  0.09814461  0.47888317    -0.25600
C247        C  0.79653855  0.12625642  0.45960956    -0.14800
C248        C  0.79815174  0.11816833  0.42940538     0.37500
N249        N  0.80847454  0.14627340  0.40885579    -0.89100
H250        H  0.79071251  0.07637474  0.39600077     0.18600
H251        H  0.78334754  0.10406458  0.50207481     0.18600
N252        N  0.76213152  0.03667689  0.48932459    -0.88100
H253        H  0.78989219  0.15056992  0.39354937     0.36000
H254        H  0.82838378  0.13562588  0.39772570     0.41100
H255        H  0.77683179  0.01282955  0.49114770     0.40700
H256        H  0.73935853  0.02853931  0.48169083     0.35600
C257        C  0.76750725  0.35084774  0.45044112    -0.26100
C258        C  0.79987568  0.33963402  0.45018666    -0.14200
C259        C  0.82326910  0.36450244  0.43897132     0.36400
C260        C  0.81400640  0.40058396  0.42901045    -0.25600
C261        C  0.78166716  0.41193427  0.42983504    -0.14800
C262        C  0.75827538  0.38678065  0.44056253     0.37500
N263        N  0.72521089  0.39810139  0.44222462    -0.89100
H264        H  0.74936128  0.33214760  0.45932161     0.18600
H265        H  0.83201126  0.41959076  0.42028712     0.18600
N266        N  0.85623491  0.35293135  0.43708606    -0.88100
H267        H  0.71142879  0.37902728  0.42994097     0.36000
H268        H  0.71811341  0.39604695  0.46408885     0.41100
H269        H  0.86799537  0.35609310  0.97352814     0.40700
H270        H  0.87780085  0.37853504  0.94262569     0.35600
C271        C  0.71694068  0.01003585  0.34046913    -0.26100
C272        C  0.70864291  0.98941513  0.36549458    -0.14200
C273        C  0.67837983  0.97189215  0.36712332     0.36400
C274        C  0.65658719  0.97563243  0.34371829    -0.25600
C275        C  0.66474089  0.99629639  0.31850957    -0.14800
C276        C  0.69535136  0.01366834  0.31683395     0.37500
N277        N  0.70440903  0.03507859  0.29136033    -0.89100
H278        H  0.74041930  0.02329396  0.33941967     0.18600
H279        H  0.63334325  0.96190614  0.34518378     0.18600
N280        N  0.66958930  0.95078834  0.39268630    -0.88100
H281        H  0.72805172  0.04491133  0.29344575     0.36000
H282        H  0.68964504  0.05904176  0.29033691     0.41100
H283        H  0.66833209  0.42731156  0.38891076     0.40700
H284        H  0.65425187  0.46871430  0.40218491     0.35600
C285        C  0.76372671  0.01733665  0.92463057     0.03300
C286        C  0.74209293  0.01812088  0.90087285    -0.12800
C287        C  0.73142516  0.98442114  0.88817698     0.00800
C288        C  0.75740599  0.45029307  0.89399922    -0.11400
C289        C  0.77907996  0.44774484  0.91775809     0.03300
C290        C  0.79070181  0.48113575  0.93076121    -0.10800
H291        H  0.73343042  0.04497517  0.89230892     0.08900
H292        H  0.74849615  0.42480399  0.88357989     0.06400
H293        H  0.80750589  0.47947415  0.94905088     0.06300
O294        O  0.61687050  0.45950165  0.70994945    -0.57600
C295        C  0.61529696  0.07166195  0.71910238     0.75000
O296        O  0.54840507  0.99722955  0.77069985    -0.58800
C297        C  0.61383034  0.42916397  0.72452213     0.75000
C298        C  0.64252470  0.99395885  0.79095165     0.77400
Cd299      Cd  0.59870574  0.99873419  0.74267815     1.37500
O300        O  0.61308578  0.04266824  0.70301291    -0.57600
O301        O  0.65372733  0.50137292  0.76806050    -0.56400
C302        C  0.53009940  0.99974381  0.74843725     0.77300
O303        O  0.61297981  0.00110888  0.79488766    -0.58800
O304        O  0.60990778  0.06667934  0.74605275    -0.57200
O305        O  0.60252943  0.43228994  0.75002902    -0.57200
O306        O  0.54379649  0.00134164  0.72388649    -0.56400
C307        C  0.65443989  0.21775886  0.67476351     0.03300
C308        C  0.67695897  0.21793464  0.65215056    -0.12800
C309        C  0.68854233  0.25206451  0.64092116     0.00800
C310        C  0.67787990  0.28642027  0.65260353    -0.11400
C311        C  0.65475740  0.28680091  0.67488343     0.03300
C312        C  0.64314263  0.25224405  0.68585521    -0.10800
H313        H  0.68568710  0.19142389  0.64335130     0.08900
H314        H  0.68772617  0.31272010  0.64437093     0.06400
H315        H  0.62511891  0.25215170  0.70285218     0.06300
O316        O  0.81244170  0.18934302  0.95566791    -0.57600
C317        C  0.81348210  0.30247173  0.96750412     0.75000
O318        O  0.80832596  0.22844470  0.54944855    -0.58800
C319        C  0.80784615  0.16031556  0.97138634     0.75000
C320        C  0.89088935  0.23680644  0.50429627     0.77400
Cd321      Cd  0.82201655  0.23569247  0.49683001     1.37500
O322        O  0.79794002  0.27283063  0.96096100    -0.57600
O323        O  0.88015680  0.22584316  0.97854260    -0.56400
C324        C  0.78067119  0.24336462  0.54699891     0.77300
O325        O  0.87251496  0.25256150  0.52261578    -0.58800
O326        O  0.83490927  0.29883540  0.47773939    -0.57200
O327        O  0.80905066  0.16843716  0.49901694    -0.57200
O328        O  0.77299484  0.25521940  0.52171466    -0.56400
C329        C  0.26439818  0.27801714  0.68544218     0.03300
C330        C  0.27406793  0.24256141  0.69647587    -0.12800
C331        C  0.26176133  0.20905781  0.68415942     0.00800
C332        C  0.23994791  0.21136955  0.66047398    -0.11400
C333        C  0.22952471  0.24660902  0.64991223     0.03300
C334        C  0.24162547  0.27969552  0.66257001    -0.10800
H335        H  0.29135121  0.24102923  0.71441081     0.08900
H336        H  0.23154460  0.18576629  0.64990353     0.06400
H337        H  0.23325059  0.30690377  0.65447971     0.06300
O338        O  0.11914134  0.30649585  0.96510987    -0.57600
C339        C  0.12085225  0.19360918  0.97829724     0.75000
O340        O  0.11123462  0.26149101  0.55507690    -0.58800
C341        C  0.11379774  0.33672378  0.97901919     0.75000
C342        C  0.02907013  0.25801517  0.50667856     0.77400
Cd343      Cd  0.09790178  0.26886165  0.50250521     1.37500
O344        O  0.11741910  0.22292376  0.96251347    -0.57600
O345        O  0.04769225  0.25047722  0.98205239    -0.56400
C346        C  0.14145645  0.26370305  0.55176799     0.77300
O347        O  0.04504734  0.27284809  0.52743148    -0.58800
O348        O  0.11305786  0.20276797  0.50231514    -0.57200
O349        O  0.10363438  0.33850784  0.50457209    -0.57200
O350        O  0.15109049  0.26867878  0.52582296    -0.56400
C351        C  0.15260997  0.48033768  0.93061418     0.03300
C352        C  0.14063790  0.51530361  0.94010668    -0.12800
C353        C  0.16443013  0.04818698  0.93744228     0.00800
C354        C  0.18812045  0.04628326  0.91590359    -0.11400
C355        C  0.18678857  0.51315858  0.89589298     0.03300
C356        C  0.17574002  0.47947309  0.90843921    -0.10800
H357        H  0.13073211  0.01617531  0.96321344     0.08900
H358        H  0.19853359  0.07206206  0.90723174     0.06400
H359        H  0.18522771  0.45262667  0.90098940     0.06300
O360        O  0.31094994  0.44910405  0.71552076    -0.57600
C361        C  0.30470922  0.06368866  0.72815187     0.75000
O362        O  0.31031607  0.50131152  0.80707755    -0.58800
C363        C  0.30612939  0.42156199  0.73270936     0.75000
C364        C  0.38988658  0.49719657  0.75638470     0.77400
Cd365      Cd  0.32081084  0.49608899  0.75379411     1.37500
O366        O  0.28903573  0.03341061  0.72409063    -0.57600
O367        O  0.37412527  0.49447669  0.73260577    -0.56400
C368        C  0.28025037  0.50598261  0.80358835     0.77300
O369        O  0.37339368  0.49919717  0.77952186    -0.58800
O370        O  0.32930815  0.06138633  0.74459744    -0.57200
O371        O  0.30872019  0.42854337  0.75977552    -0.57200
O372        O  0.27005493  0.50719763  0.77740735    -0.56400
C373        C  0.22530836  0.51864427  0.82158809    -0.26100
C374        C  0.25747870  0.50913130  0.82823610    -0.14200
C375        C  0.26635123  0.50105527  0.85766600     0.36400
C376        C  0.24282683  0.50291007  0.87957442    -0.25600
C377        C  0.21083626  0.51210047  0.87254499    -0.14800
C378        C  0.20200913  0.51980276  0.84327661     0.37500
N379        N  0.16933544  0.52769206  0.83486660    -0.89100
H380        H  0.21790688  0.52464591  0.79919749     0.21400
H381        H  0.24930693  0.49676762  0.90217623     0.18600
N382        N  0.30649168  0.98170802  0.86821177    -0.88100
H383        H  0.17303021  0.05490465  0.85693807     0.36000
H384        H  0.16219892  0.00890893  0.85288928     0.41100
H385        H  0.30318044  0.46397492  0.85586476     0.40700
H386        H  0.30133645  0.48671984  0.88787602     0.35600
C387        C  0.12969757  0.41599368  0.92503871    -0.26100
C388        C  0.14118406  0.44450972  0.94368499    -0.14200
C389        C  0.14268104  0.43799912  0.97421633     0.36400
C390        C  0.13251663  0.40295375  0.98543555    -0.25600
C391        C  0.12177287  0.37411995  0.96664594    -0.14800
C392        C  0.11996084  0.38084835  0.93618507     0.37500
N393        N  0.10803939  0.35207838  0.91670657    -0.89100
H394        H  0.12833672  0.42124630  0.90163843     0.18600
H395        H  0.13718450  0.40048811  0.50804268     0.18600
N396        N  0.15541022  0.46649842  0.99352763    -0.88100
H397        H  0.10847354  0.36148417  0.89497886     0.36000
H398        H  0.08384947  0.34741618  0.92175281     0.41100
H399        H  0.17959454  0.47051279  0.98829779     0.40700
H400        H  0.16209303  0.45752968  0.51521124     0.35600
C401        C  0.14104435  0.11156739  0.92770833    -0.26100
C402        C  0.15339203  0.08526992  0.94803030    -0.14200
C403        C  0.15570558  0.09517687  0.97790887     0.36400
C404        C  0.14495817  0.13060070  0.98688581    -0.25600
C405        C  0.13219141  0.15696203  0.96673645    -0.14800
C406        C  0.13047979  0.14723781  0.93665638     0.37500
N407        N  0.11762886  0.17239300  0.91478436    -0.89100
H408        H  0.13940034  0.10417559  0.90469536     0.18600
H409        H  0.15441010  0.14837264  0.50181293     0.18600
N410        N  0.17002408  0.07057338  0.99945748    -0.88100
H411        H  0.13191191  0.19668219  0.91404831     0.36000
H412        H  0.09417310  0.17981994  0.92054743     0.41100
H413        H  0.19297218  0.06291825  0.99249809     0.40700
H414        H  0.16418195  0.05607070  0.49359046     0.35600
C415        C  0.27734438  0.31947289  0.72806129    -0.26100
C416        C  0.27772432  0.31357307  0.69768100    -0.14200
C417        C  0.28946162  0.34237792  0.67911134     0.36400
C418        C  0.29892419  0.37711183  0.69117280    -0.25600
C419        C  0.29753611  0.38358451  0.72147578    -0.14800
C420        C  0.28713530  0.35411666  0.74011254     0.37500
N421        N  0.28571708  0.35937981  0.77118893    -0.89100
H422        H  0.26846054  0.29748895  0.74247959     0.18600
H423        H  0.30735153  0.39929226  0.67671616     0.18600
N424        N  0.29175880  0.33621484  0.64805894    -0.88100
H425        H  0.30018283  0.33875262  0.78123528     0.36000
H426        H  0.26197188  0.35495496  0.77775826     0.41100
H427        H  0.30858087  0.31462759  0.64486743     0.40700
H428        H  0.30066296  0.36026907  0.63750209     0.35600
C429        C  0.30556268  0.16400073  0.69818876    -0.26100
C430        C  0.27250408  0.17158376  0.69528275    -0.14200
C431        C  0.25016884  0.14309356  0.70251581     0.36400
C432        C  0.26118088  0.10760256  0.71220235    -0.25600
C433        C  0.29421482  0.10018904  0.71539808    -0.14800
C434        C  0.31656267  0.12859476  0.70809047     0.37500
N435        N  0.35044992  0.12130636  0.71002299    -0.89100
H436        H  0.32296664  0.18548665  0.69233852     0.18600
H437        H  0.24376416  0.08617640  0.71815922     0.18600
N438        N  0.21627905  0.15049455  0.70094661    -0.88100
H439        H  0.36071592  0.14120785  0.72419612     0.36000
H440        H  0.36022073  0.12543682  0.68922942     0.41100
H441        H  0.20669148  0.14610461  0.72178590     0.40700
H442        H  0.20584106  0.13082824  0.68668709     0.35600
C443        C  0.21747199  0.26719919  0.59907011    -0.26100
C444        C  0.20697190  0.24947233  0.62477085    -0.14200
C445        C  0.17477280  0.23712787  0.62663047     0.36400
C446        C  0.15383153  0.24252503  0.60276453    -0.25600
C447        C  0.16430022  0.25993036  0.57680973    -0.14800
C448        C  0.19651824  0.27270083  0.57505916     0.37500
N449        N  0.20777519  0.29172778  0.54921064    -0.89100
H450        H  0.24210742  0.27713552  0.59790729     0.18600
H451        H  0.12921867  0.23272161  0.60449411     0.18600
N452        N  0.16245679  0.22005386  0.65273602    -0.88100
H453        H  0.23214975  0.29861869  0.55138638     0.36000
H454        H  0.19529682  0.31737343  0.54743161     0.41100
H455        H  0.16637457  0.23854187  0.67024050     0.40700
H456        H  0.17505536  0.19497383  0.65688887     0.35600
C457        C  0.94019196  0.26707979  0.52505098    -0.26100
C458        C  0.92649611  0.23943948  0.50670907    -0.14200
C459        C  0.94973935  0.21791548  0.98393271     0.36400
C460        C  0.98295754  0.22481116  0.98472070    -0.25600
C461        C  0.99388696  0.25137631  0.50805490    -0.14800
C462        C  0.97361819  0.27335985  0.52588488     0.37500
N463        N  0.98682289  0.30274096  0.54408248    -0.89100
H464        H  0.92466693  0.28481251  0.53810322     0.18600
H465        H  0.99824590  0.21094879  0.96892939     0.18600
N466        N  0.93629483  0.19275688  0.96234417    -0.88100
H467        H  0.96870804  0.31584703  0.55613076     0.36000
H468        H  0.99625430  0.32350136  0.53023535     0.41100
H469        H  0.92687150  0.16941043  0.97347862     0.40700
H470        H  0.95422820  0.18235353  0.94863558     0.35600
C471        C  0.74320417  0.23848042  0.62297660    -0.26100
C472        C  0.71192402  0.25141530  0.61686411    -0.14200
C473        C  0.70325969  0.26163637  0.58784729     0.36400
C474        C  0.72641217  0.25939037  0.56586647    -0.25600
C475        C  0.75790622  0.24650242  0.57180138    -0.14800
C476        C  0.76638178  0.23599379  0.60083714     0.37500
N477        N  0.79826978  0.22267753  0.60783353    -0.89100
H478        H  0.74953367  0.23032216  0.64523679     0.18600
H479        H  0.71933660  0.26719010  0.54371854     0.18600
N480        N  0.67125637  0.27364321  0.57965587    -0.88100
H481        H  0.80001496  0.21478670  0.62991964     0.36000
H482        H  0.81402245  0.24541362  0.60507613     0.41100
H483        H  0.65569217  0.27375158  0.59742191     0.40700
H484        H  0.66200341  0.25376469  0.56488737     0.35600
C485        C  0.44111426  0.01280588  0.73133217    -0.26100
C486        C  0.42562369  0.49835764  0.75638369    -0.14200
C487        C  0.44482422  0.49259519  0.78186352     0.36400
C488        C  0.47844278  0.49372625  0.77990106    -0.25600
C489        C  0.49379000  0.50025485  0.75304262    -0.14800
C490        C  0.47456029  0.01349945  0.72790195     0.37500
N491        N  0.48796786  0.02796772  0.70117832    -0.89100
H492        H  0.42577021  0.02251601  0.71345394     0.18600
H493        H  0.49268722  0.48912697  0.79963687     0.18600
N494        N  0.43113978  0.48490865  0.80994140    -0.88100
H495        H  0.46999799  0.04012662  0.68791342     0.36000
H496        H  0.49676115  0.00490353  0.68945424     0.41100
H497        H  0.41659892  0.46085375  0.80827584     0.40700
H498        H  0.41713887  0.50804506  0.81613230     0.35600
C499        C  0.63124879  0.15380296  0.66716175    -0.26100
C500        C  0.64303641  0.18121950  0.68664068    -0.14200
C501        C  0.64530592  0.17279576  0.71682061     0.36400
C502        C  0.63543103  0.13710872  0.72690763    -0.25600
C503        C  0.62404100  0.10936720  0.70737814    -0.14800
C504        C  0.62169241  0.11797300  0.67714678     0.37500
N505        N  0.60953919  0.09051115  0.65667359    -0.89100
H506        H  0.62946473  0.16048357  0.64399398     0.18600
H507        H  0.63749287  0.13059921  0.75008091     0.18600
N508        N  0.65848872  0.20006184  0.73694618    -0.88100
H509        H  0.61019486  0.10109190  0.63525702     0.36000
H510        H  0.58527498  0.08600923  0.66144282     0.41100
H511        H  0.68257011  0.20439128  0.73141150     0.40700
H512        H  0.65854825  0.18939657  0.75835571     0.35600
C513        C  0.62402706  0.38783066  0.68181484    -0.26100
C514        C  0.62341390  0.39218330  0.71235056    -0.14200
C515        C  0.63282433  0.36163881  0.73062777     0.36400
C516        C  0.64249093  0.32741841  0.71785724    -0.25600
C517        C  0.64328541  0.32313388  0.68727952    -0.14800
C518        C  0.63351469  0.35355936  0.66906560     0.37500
N519        N  0.63280910  0.34940767  0.63772615    -0.89100
H520        H  0.61667176  0.41117551  0.66779065     0.18600
H521        H  0.65028129  0.30423226  0.73185159     0.18600
N522        N  0.63342672  0.36570252  0.76199091    -0.88100
H523        H  0.62522371  0.37449182  0.62755148     0.36000
H524        H  0.61558353  0.32886346  0.63260538     0.41100
H525        H  0.65109782  0.38569493  0.76722451     0.40700
H526        H  0.64051504  0.34041434  0.77214872     0.35600
C527        C  0.79014058  0.07965959  0.91851135    -0.26100
C528        C  0.77544821  0.05336195  0.93719246    -0.14200
C529        C  0.77099722  0.06272422  0.96695367     0.36400
C530        C  0.78223505  0.09738872  0.97751004    -0.25600
C531        C  0.79729159  0.12364158  0.95895655    -0.14800
C532        C  0.80113351  0.11471237  0.92901293     0.37500
N533        N  0.81630592  0.14097792  0.90940080    -0.89100
H534        H  0.79321337  0.07263473  0.89560356     0.18600
H535        H  0.77844261  0.10418312  0.00035998     0.18600
N536        N  0.75374250  0.03860713  0.98661509    -0.88100
H537        H  0.81643922  0.13037087  0.88803739     0.36000
H538        H  0.84039647  0.14343062  0.91598812     0.41100
H539        H  0.76634253  0.01328689  0.98944013     0.40700
H540        H  0.73114557  0.03276723  0.97739206     0.35600
C541        C  0.77337924  0.34811242  0.94856841    -0.26100
C542        C  0.80580161  0.33927550  0.95383113    -0.14200
C543        C  0.82982784  0.36600820  0.94684251     0.36400
C544        C  0.82067613  0.40119864  0.93479294    -0.25600
C545        C  0.78810444  0.41019155  0.92994955    -0.14800
C546        C  0.76432389  0.38338412  0.93716620     0.37500
N547        N  0.73083362  0.39234721  0.93391868    -0.89100
H548        H  0.75479891  0.32793888  0.95424564     0.18600
H549        H  0.83898669  0.42167381  0.92909074     0.18600
N550        N  0.86332846  0.35692807  0.95099396    -0.88100
H551        H  0.72035343  0.37233034  0.91996599     0.36000
H552        H  0.72008576  0.38980625  0.95444522     0.41100
H553        H  0.87027869  0.37217511  0.44895031     0.40700
H554        H  0.86299896  0.35455846  0.41510549     0.35600
C555        C  0.72010019  0.99461460  0.83554200    -0.26100
C556        C  0.70862108  0.98570404  0.86341918    -0.14200
C557        C  0.67555042  0.97961941  0.86770585     0.36400
C558        C  0.65427596  0.98290429  0.84373831    -0.25600
C559        C  0.66566082  0.99159272  0.81563285    -0.14800
C560        C  0.69894840  0.99771761  0.81149516     0.37500
N561        N  0.71108853  0.00781062  0.78311998    -0.89100
H562        H  0.74562100  0.99955938  0.83267263     0.18600
H563        H  0.62878069  0.97823133  0.84695242     0.18600
N564        N  0.66372758  0.97097062  0.89646591    -0.88100
H565        H  0.73612976  0.01073969  0.78385775     0.36000
H566        H  0.70174827  0.03444507  0.77767221     0.41100
H567        H  0.69029684  0.44146302  0.90077514     0.40700
H568        H  0.65532136  0.46485277  0.89859721     0.35600
C569        C  0.77450305  0.51832426  0.42114225     0.03300
C570        C  0.75104605  0.52062603  0.39888998    -0.12800
C571        C  0.73799750  0.48767175  0.38672601     0.00800
C572        C  0.74343148  0.95187384  0.39928887    -0.11400
C573        C  0.76542779  0.94930810  0.42271472     0.03300
C574        C  0.77727313  0.98282962  0.43549993    -0.10800
H575        H  0.74246598  0.54805782  0.39145608     0.08900
H576        H  0.73557078  0.92659057  0.38794023     0.06400
H577        H  0.79547128  0.98124182  0.45259515     0.06300
O578        O  0.61782673  0.95605801  0.20717781    -0.57600
C579        C  0.61161839  0.56696119  0.22204506     0.75000
O580        O  0.54742509  0.49144770  0.27298096    -0.58800
C581        C  0.61582515  0.92621039  0.22251938     0.75000
C582        C  0.64404343  0.49356165  0.29313833     0.77400
Cd583      Cd  0.59848322  0.49381549  0.24599933     1.37500
O584        O  0.61284107  0.53742291  0.20646390    -0.57600
O585        O  0.65006182  0.00650060  0.26826717    -0.56400
C586        C  0.52973683  0.49284220  0.25021021     0.77300
O587        O  0.61408656  0.49158914  0.29799787    -0.58800
O588        O  0.60392430  0.56242726  0.24858052    -0.57200
O589        O  0.60431964  0.93001550  0.24783972    -0.57200
O590        O  0.54419170  0.49461699  0.22603705    -0.56400
C591        C  0.65274207  0.71184716  0.17746053     0.03300
C592        C  0.67573785  0.71072723  0.15523387    -0.12800
C593        C  0.68892540  0.74418743  0.14436160     0.00800
C594        C  0.67938676  0.77903908  0.15568720    -0.11400
C595        C  0.65561426  0.78085821  0.17724280     0.03300
C596        C  0.64244766  0.74703749  0.18816654    -0.10800
H597        H  0.68367073  0.68380521  0.14655350     0.08900
H598        H  0.69042303  0.80470944  0.14752026     0.06400
H599        H  0.62394952  0.74809044  0.20470617     0.06300
O600        O  0.81546195  0.69119240  0.45405543    -0.57600
C601        C  0.80793009  0.80431019  0.46703098     0.75000
O602        O  0.80989679  0.73258005  0.05320174    -0.58800
C603        C  0.81302656  0.66185621  0.46985915     0.75000
C604        C  0.88936297  0.73750260  0.00356838     0.77400
Cd605      Cd  0.82068687  0.73373167  0.00000296     1.37500
O606        O  0.79437733  0.77352453  0.46001164    -0.57600
O607        O  0.87909811  0.73532240  0.47519256    -0.56400
C608        C  0.77981744  0.73740181  0.05004657     0.77300
O609        O  0.87247709  0.74137636  0.02635675    -0.58800
O610        O  0.82811149  0.80109482  0.98943640    -0.57200
O611        O  0.81353437  0.66453459  0.00119477    -0.57200
O612        O  0.76943293  0.74000640  0.02397223    -0.56400
C613        C  0.26899490  0.78171871  0.17646339     0.03300
C614        C  0.27964182  0.74638698  0.18703463    -0.12800
C615        C  0.26661102  0.71275248  0.17560268     0.00800
C616        C  0.24309537  0.71478034  0.15332296    -0.11400
C617        C  0.23219748  0.74990045  0.14303408     0.03300
C618        C  0.24516951  0.78316702  0.15456056    -0.10800
H619        H  0.29770352  0.74509962  0.20433392     0.08900
H620        H  0.23346485  0.68906168  0.14380251     0.06400
H621        H  0.23630752  0.81028003  0.14669981     0.06300
O622        O  0.11739606  0.81341778  0.46622694    -0.57600
C623        C  0.11843139  0.70054936  0.48046190     0.75000
O624        O  0.10996111  0.76115492  0.05250415    -0.58800
C625        C  0.11423859  0.84376410  0.48053202     0.75000
C626        C  0.02717395  0.75796408  0.00410895     0.77400
Cd627      Cd  0.09564955  0.76345243  0.00019597     1.37500
O628        O  0.12148271  0.73128368  0.46641104    -0.57600
O629        O  0.04743594  0.76764778  0.48239350    -0.56400
C630        C  0.14008289  0.76121243  0.04815482     0.77300
O631        O  0.04447314  0.75978688  0.02706246    -0.58800
O632        O  0.10743549  0.69615517  0.00010594    -0.57200
O633        O  0.10197285  0.83197104  0.00441495    -0.57200
O634        O  0.14902622  0.76209333  0.02172590    -0.56400
C635        C  0.15746331  0.98651980  0.43328238     0.03300
C636        C  0.14553694  0.02160497  0.44257783    -0.12800
C637        C  0.15625164  0.55606210  0.43422941     0.00800
C638        C  0.17895132  0.55610996  0.41182728    -0.11400
C639        C  0.19201802  0.01910701  0.39871318     0.03300
C640        C  0.18086834  0.98553970  0.41135522    -0.10800
H641        H  0.12553378  0.52169636  0.46124375     0.08900
H642        H  0.18905053  0.58265943  0.40430399     0.06400
H643        H  0.19022789  0.95864564  0.40387600     0.06300
O644        O  0.30741719  0.95447568  0.21166485    -0.57600
C645        C  0.30775263  0.56906878  0.22299357     0.75000
O646        O  0.31102574  0.00198832  0.30578331    -0.58800
C647        C  0.30624947  0.92486946  0.22732798     0.75000
C648        C  0.38966665  0.99840841  0.25512788     0.77400
Cd649      Cd  0.32077902  0.99762541  0.25251556     1.37500
O650        O  0.29431336  0.53789853  0.21699135    -0.57600
O651        O  0.37384964  0.99772598  0.23127254    -0.56400
C652        C  0.28071138  0.00436620  0.30311650     0.77300
O653        O  0.37325585  0.99781144  0.27834420    -0.58800
O654        O  0.32823114  0.56892061  0.24370993    -0.57200
O655        O  0.31254828  0.92902898  0.25430513    -0.57200
O656        O  0.26956115  0.00297676  0.27724483    -0.56400
C657        C  0.22624047  0.01645219  0.32264317    -0.26100
C658        C  0.25896663  0.00888734  0.32842415    -0.14200
C659        C  0.26983554  0.00612240  0.35791091     0.36400
C660        C  0.24758025  0.01036444  0.38069306    -0.25600
C661        C  0.21502042  0.01740102  0.37454965    -0.14800
C662        C  0.20435052  0.02084534  0.34530172     0.37500
N663        N  0.17127750  0.02823446  0.33804519    -0.89100
H664        H  0.21742434  0.01899556  0.30027984     0.21400
H665        H  0.25550493  0.00771460  0.40332559     0.18600
N666        N  0.29906040  0.49227759  0.36687343    -0.88100
H667        H  0.17037099  0.57508940  0.35332227     0.36000
H668        H  0.15712028  0.53086554  0.34532005     0.41100
H669        H  0.30824649  0.97123921  0.35787360     0.40700
H670        H  0.30713617  0.99915512  0.38739447     0.35600
C671        C  0.13534646  0.92182360  0.42675864    -0.26100
C672        C  0.14516501  0.95071964  0.44585499    -0.14200
C673        C  0.14374014  0.94478702  0.47642659     0.36400
C674        C  0.13217010  0.91016326  0.48719564    -0.25600
C675        C  0.12311559  0.88090977  0.46806943    -0.14800
C676        C  0.12439632  0.88695548  0.43748896     0.37500
N677        N  0.11451982  0.85779798  0.41743252    -0.89100
H678        H  0.13615927  0.92657054  0.40329519     0.18600
H679        H  0.13162796  0.89454910  0.01116463     0.18600
N680        N  0.15505654  0.97335016  0.49638439    -0.88100
H681        H  0.11755394  0.86661605  0.39571841     0.36000
H682        H  0.08984986  0.85352548  0.42018521     0.41100
H683        H  0.17977870  0.97669631  0.49303411     0.40700
H684        H  0.15553033  0.95136406  0.02128180     0.35600
C685        C  0.12965918  0.61831987  0.42847717    -0.26100
C686        C  0.14580551  0.59235528  0.44673374    -0.14200
C687        C  0.15328742  0.60234862  0.47595044     0.36400
C688        C  0.14405146  0.63780039  0.48641079    -0.25600
C689        C  0.12797543  0.66386535  0.46813249    -0.14800
C690        C  0.12067602  0.65390257  0.43884002     0.37500
N691        N  0.10330260  0.67874777  0.41945429    -0.89100
H692        H  0.12399537  0.61081107  0.40598803     0.18600
H693        H  0.15300825  0.64379935  0.99785044     0.18600
N694        N  0.17112642  0.57763355  0.49509932    -0.88100
H695        H  0.11684728  0.70327457  0.41631218     0.36000
H696        H  0.08151084  0.68599115  0.42925356     0.41100
H697        H  0.19288709  0.57081598  0.48509505     0.40700
H698        H  0.16468237  0.55133168  0.98958978     0.35600
C699        C  0.27796496  0.82299443  0.21957831    -0.26100
C700        C  0.28103148  0.81740041  0.18936921    -0.14200
C701        C  0.29301032  0.84688129  0.17162690     0.36400
C702        C  0.30125777  0.88164202  0.18451856    -0.25600
C703        C  0.29777692  0.88751729  0.21476675    -0.14800
C704        C  0.28574688  0.85786739  0.23245118     0.37500
N705        N  0.28038996  0.86357111  0.26320461    -0.89100
H706        H  0.26813468  0.80051520  0.23298706     0.18600
H707        H  0.31048365  0.90423194  0.17086991     0.18600
N708        N  0.29661830  0.84138718  0.14061440    -0.88100
H709        H  0.27185887  0.83880638  0.27301801     0.36000
H710        H  0.26206877  0.88370872  0.26512757     0.41100
H711        H  0.31388712  0.82022653  0.13770444     0.40700
H712        H  0.30556285  0.86586639  0.13068018     0.35600
C713        C  0.31016778  0.66653102  0.18786989    -0.26100
C714        C  0.27722441  0.67541325  0.18700851    -0.14200
C715        C  0.25463875  0.64844579  0.19667761     0.36400
C716        C  0.26544120  0.61296111  0.20652825    -0.25600
C717        C  0.29836758  0.60436987  0.20800933    -0.14800
C718        C  0.32109233  0.63122234  0.19803644     0.37500
N719        N  0.35513784  0.62363937  0.19746250    -0.89100
H720        H  0.32754795  0.68703553  0.18016621     0.18600
H721        H  0.24814021  0.59254601  0.21453475     0.18600
N722        N  0.22094038  0.65772624  0.19747013    -0.88100
H723        H  0.36254353  0.62626251  0.17571423     0.36000
H724        H  0.36035460  0.59577261  0.20342738     0.41100
H725        H  0.21810821  0.67965278  0.21256361     0.40700
H726        H  0.20757528  0.63484925  0.20529575     0.35600
C727        C  0.21820453  0.76577472  0.09189562    -0.26100
C728        C  0.20823606  0.75230027  0.11918021    -0.14200
C729        C  0.17557602  0.74339273  0.12359252     0.36400
C730        C  0.15365696  0.74697871  0.10028282    -0.25600
C731        C  0.16367247  0.75968757  0.07261086    -0.14800
C732        C  0.19623732  0.77004307  0.06859004     0.37500
N733        N  0.20683395  0.78546950  0.04112646    -0.89100
H734        H  0.24323396  0.77339076  0.08893118     0.18600
H735        H  0.12870182  0.73949970  0.10380672     0.18600
N736        N  0.16398170  0.73157153  0.15163176    -0.88100
H737        H  0.23154355  0.79105906  0.04182464     0.36000
H738        H  0.19535070  0.81158545  0.03818849     0.41100
H739        H  0.16969281  0.75253483  0.16693524     0.40700
H740        H  0.17585998  0.70665624  0.15777477     0.35600
C741        C  0.93985214  0.75945708  0.02801039    -0.26100
C742        C  0.92485146  0.74100265  0.00428758    -0.14200
C743        C  0.94883296  0.74067676  0.47577063     0.36400
C744        C  0.98202405  0.74718418  0.47815076    -0.25600
C745        C  0.99199303  0.75289190  0.00495042    -0.14800
C746        C  0.97326481  0.76578602  0.02850517     0.37500
N747        N  0.98801598  0.78603760  0.05238553    -0.89100
H748        H  0.92536782  0.76991071  0.04585469     0.18600
H749        H  0.99690796  0.74293882  0.45908086     0.18600
N750        N  0.93516006  0.72911464  0.44812342    -0.88100
H751        H  0.97084702  0.79342738  0.06794412     0.36000
H752        H  0.99701407  0.81142033  0.04393984     0.41100
H753        H  0.92712666  0.70126354  0.45058878     0.40700
H754        H  0.95268927  0.72851302  0.43186320     0.35600
C755        C  0.74504709  0.74017889  0.12707199    -0.26100
C756        C  0.71216045  0.74278477  0.12043877    -0.14200
C757        C  0.70166377  0.74413842  0.09105504     0.36400
C758        C  0.72421549  0.74257594  0.06872525    -0.25600
C759        C  0.75738561  0.73973871  0.07500716    -0.14800
C760        C  0.76795652  0.73893877  0.10463670     0.37500
N761        N  0.80166187  0.73693309  0.11193984    -0.89100
H762        H  0.75279829  0.73938070  0.14982891     0.18600
H763        H  0.71555307  0.74340916  0.04624081     0.18600
N764        N  0.66820247  0.74696927  0.08336436    -0.88100
H765        H  0.80504638  0.73511871  0.13465863     0.36000
H766        H  0.81209355  0.76246720  0.10541539     0.41100
H767        H  0.65895416  0.77160453  0.09270661     0.40700
H768        H  0.65620793  0.72373963  0.09234819     0.35600
C769        C  0.44095308  0.49355571  0.22900812    -0.26100
C770        C  0.42535382  0.00002193  0.25509058    -0.14200
C771        C  0.44463611  0.00030741  0.28094744     0.36400
C772        C  0.47823341  0.00107465  0.27874908    -0.25600
C773        C  0.49333568  0.00184608  0.25133916    -0.14800
C774        C  0.47448138  0.49144621  0.22631123     0.37500
N775        N  0.48842378  0.48774373  0.19773511    -0.89100
H776        H  0.42616479  0.49276308  0.20931075     0.18600
H777        H  0.49259877  0.00074686  0.29872185     0.18600
N778        N  0.43111269  0.99977570  0.30968912    -0.88100
H779        H  0.47064201  0.48872076  0.18133522     0.36000
H780        H  0.49879297  0.46082855  0.19662369     0.41100
H781        H  0.41739160  0.97518841  0.31206676     0.40700
H782        H  0.41637323  0.02351678  0.31204227     0.35600
C783        C  0.62856331  0.64829450  0.16986479    -0.26100
C784        C  0.63992654  0.67595706  0.18938753    -0.14200
C785        C  0.64065273  0.66821113  0.21974360     0.36400
C786        C  0.63007172  0.63287145  0.22989285    -0.25600
C787        C  0.61964557  0.60476026  0.21030269    -0.14800
C788        C  0.61837434  0.61276500  0.17996666     0.37500
N789        N  0.60676677  0.58492752  0.15953648    -0.89100
H790        H  0.62779852  0.65445020  0.14657661     0.18600
H791        H  0.63120937  0.62673997  0.25317306     0.18600
N792        N  0.65323186  0.69566350  0.24002577    -0.88100
H793        H  0.60792634  0.59516535  0.13804550     0.36000
H794        H  0.58240003  0.58040999  0.16387656     0.41100
H795        H  0.67764546  0.69933189  0.23546943     0.40700
H796        H  0.65202381  0.68553065  0.26154979     0.35600
C797        C  0.62830761  0.88349260  0.18106413    -0.26100
C798        C  0.62625474  0.88888703  0.21142820    -0.14200
C799        C  0.63395331  0.85856061  0.23062370     0.36400
C800        C  0.64303948  0.82348262  0.21892343    -0.25600
C801        C  0.64489053  0.81806597  0.18854195    -0.14800
C802        C  0.63708091  0.84832168  0.16938722     0.37500
N803        N  0.63742776  0.84302411  0.13815335    -0.89100
H804        H  0.62230444  0.90659944  0.16630408     0.18600
H805        H  0.64940387  0.80042850  0.23362169     0.18600
N806        N  0.63312460  0.86355397  0.26188180    -0.88100
H807        H  0.63119818  0.86807470  0.12719960     0.36000
H808        H  0.61965701  0.82318881  0.13289828     0.41100
H809        H  0.65118956  0.88287749  0.26750922     0.40700
H810        H  0.63882296  0.83828396  0.27275672     0.35600
C811        C  0.80278511  0.57980918  0.41695689    -0.26100
C812        C  0.78665500  0.55351429  0.43458900    -0.14200
C813        C  0.77993524  0.56271803  0.46399526     0.36400
C814        C  0.78957773  0.59773113  0.47514264    -0.25600
C815        C  0.80527384  0.62436722  0.45742215    -0.14800
C816        C  0.81215042  0.61510840  0.42809879     0.37500
N817        N  0.82882593  0.64124491  0.40962844    -0.89100
H818        H  0.80778955  0.57304015  0.39430165     0.18600
H819        H  0.78375274  0.60462856  0.49759896     0.18600
N820        N  0.76200306  0.53790594  0.48258748    -0.88100
H821        H  0.81423945  0.64690827  0.39130500     0.36000
H822        H  0.84983183  0.62809490  0.40237252     0.41100
H823        H  0.77481031  0.51267154  0.48531126     0.40700
H824        H  0.73995646  0.53195918  0.47235265     0.35600
C825        C  0.76540848  0.84637630  0.44729287    -0.26100
C826        C  0.79801163  0.84064760  0.45398836    -0.14200
C827        C  0.82020385  0.87029473  0.44977393     0.36400
C828        C  0.80909898  0.90547443  0.43941330    -0.25600
C829        C  0.77627822  0.91161021  0.43336225    -0.14800
C830        C  0.75426775  0.88161452  0.43747135     0.37500
N831        N  0.72041256  0.88709681  0.43275783    -0.89100
H832        H  0.74821165  0.82380442  0.45081434     0.18600
H833        H  0.82619917  0.92807276  0.43576716     0.18600
N834        N  0.85391257  0.86445861  0.45573255    -0.88100
H835        H  0.71260733  0.86760817  0.41702400     0.36000
H836        H  0.70859641  0.88108443  0.45234141     0.41100
H837        H  0.85413059  0.86438171  0.98279122     0.40700
H838        H  0.86443528  0.88725882  0.95225130     0.35600
C839        C  0.72119671  0.50791100  0.33695118    -0.26100
C840        C  0.71342048  0.49002792  0.36334570    -0.14200
C841        C  0.68279839  0.47379592  0.36683152     0.36400
C842        C  0.66023634  0.47595344  0.34386822    -0.25600
C843        C  0.66806542  0.49336076  0.31717591    -0.14800
C844        C  0.69892042  0.50957090  0.31366527     0.37500
N845        N  0.70753131  0.52775625  0.28661587    -0.89100
H846        H  0.74492630  0.52013308  0.33441452     0.18600
H847        H  0.63673823  0.46326384  0.34674498     0.18600
N848        N  0.67454694  0.45529761  0.39371649    -0.88100
H849        H  0.73131447  0.53735448  0.28752742     0.36000
H850        H  0.69298565  0.55176275  0.28418714     0.41100
H851        H  0.66412807  0.92316460  0.38622002     0.40700
H852        H  0.64872821  0.96287032  0.40124444     0.35600
C853        C  0.77980024  0.51663565  0.92081574     0.03300
C854        C  0.75794452  0.51862399  0.89723503    -0.12800
C855        C  0.74640753  0.48555825  0.88408579     0.00800
C856        C  0.74233863  0.94966548  0.89912057    -0.11400
C857        C  0.76354837  0.94830303  0.92325006     0.03300
C858        C  0.77476983  0.98235183  0.93546976    -0.10800
H859        H  0.74897996  0.54589180  0.88981208     0.08900
H860        H  0.73432043  0.92374927  0.88874776     0.06400
H861        H  0.79207977  0.98158988  0.95337429     0.06300
O862        O  0.61677686  0.95811705  0.70192912    -0.57600
C863        C  0.61530046  0.57275981  0.72255205     0.75000
O864        O  0.54675194  0.50323327  0.77536383    -0.58800
C865        C  0.61398174  0.92759436  0.71633229     0.75000
C866        C  0.64714140  0.49872840  0.79493667     0.77400
Cd867      Cd  0.59906087  0.50139668  0.74919286     1.37500
O868        O  0.61657569  0.54195503  0.70853159    -0.57600
O869        O  0.65124111  0.98881112  0.76478956    -0.56400
C870        C  0.52957707  0.50126676  0.75225813     0.77300
O871        O  0.61742803  0.49778531  0.80117681    -0.58800
O872        O  0.60529254  0.57060405  0.74864033    -0.57200
O873        O  0.60238841  0.93021859  0.74175267    -0.57200
O874        O  0.54473611  0.49996274  0.72843040    -0.56400
C875        C  0.66005274  0.71527614  0.67443325     0.03300
C876        C  0.68365352  0.71517977  0.65264721    -0.12800
C877        C  0.69385173  0.74912434  0.63990799     0.00800
C878        C  0.68095880  0.78356315  0.64917514    -0.11400
C879        C  0.65738897  0.78424161  0.67090434     0.03300
C880        C  0.64685716  0.75001156  0.68329825    -0.10800
H881        H  0.69396924  0.68868439  0.64537292     0.08900
H882        H  0.68943736  0.80976754  0.63956426     0.06400
H883        H  0.62810935  0.75049653  0.69961658     0.06300
O884        O  0.81077966  0.69065410  0.95858203    -0.57600
C885        C  0.80400118  0.80457685  0.97254353     0.75000
O886        O  0.81331709  0.73210287  0.54801097    -0.58800
C887        C  0.80975969  0.66067470  0.97381881     0.75000
C888        C  0.89382982  0.74082921  0.49918380     0.77400
Cd889      Cd  0.82516995  0.73490345  0.49516385     1.37500
O890        O  0.78787205  0.77483292  0.96768785    -0.57600
O891        O  0.87421867  0.73129564  0.97987916    -0.56400
C892        C  0.78377311  0.74031570  0.54484627     0.77300
O893        O  0.87653089  0.74265706  0.52184635    -0.58800
O894        O  0.82975698  0.80258526  0.48650151    -0.57200
O895        O  0.81672518  0.66639388  0.49717379    -0.57200
O896        O  0.77384723  0.74524559  0.51881156    -0.56400
C897        C  0.26859684  0.77732592  0.68664229     0.03300
C898        C  0.27796918  0.74050004  0.69476976    -0.12800
C899        C  0.26275363  0.70900860  0.68189673     0.00800
C900        C  0.23848869  0.71458492  0.66078447    -0.11400
C901        C  0.22902251  0.75114806  0.65295344     0.03300
C902        C  0.24374595  0.78232209  0.66600183    -0.10800
H903        H  0.29701869  0.73636406  0.71088931     0.08900
H904        H  0.22746902  0.69052221  0.64996327     0.06400
H905        H  0.23616290  0.81058559  0.65964678     0.06300
O906        O  0.11048151  0.80854689  0.96173980    -0.57600
C907        C  0.11299459  0.69352154  0.97301341     0.75000
O908        O  0.11254560  0.77670087  0.55827105    -0.58800
C909        C  0.11005648  0.83737790  0.97809976     0.75000
C910        C  0.03159507  0.76386115  0.50570936     0.77400
Cd911      Cd  0.10017001  0.77122746  0.50555152     1.37500
O912        O  0.11038944  0.72356954  0.95796412    -0.57600
O913        O  0.04165289  0.75966943  0.97994396    -0.56400
C914        C  0.14239256  0.77051529  0.55514107     0.77300
O915        O  0.04763978  0.76430954  0.52945728    -0.58800
O916        O  0.10701537  0.70270664  0.50598290    -0.57200
O917        O  0.10394086  0.84054429  0.50641758    -0.57200
O918        O  0.15193087  0.76539076  0.52924763    -0.56400
C919        C  0.16091071  0.97953691  0.93777346     0.03300
C920        C  0.15037661  0.01478043  0.94783163    -0.12800
C921        C  0.15205812  0.54906539  0.92782808     0.00800
C922        C  0.17493290  0.54790559  0.90560985    -0.11400
C923        C  0.19800170  0.01121922  0.90510728     0.03300
C924        C  0.18481682  0.97789044  0.91636832    -0.10800
H925        H  0.12268203  0.51632027  0.95714532     0.08900
H926        H  0.18395291  0.57403135  0.89627187     0.06400
H927        H  0.19263361  0.95076132  0.90798660     0.06300
O928        O  0.31322831  0.94736290  0.71856847    -0.57600
C929        C  0.30305600  0.56223375  0.72135162     0.75000
O930        O  0.31529176  0.99739445  0.81036376    -0.58800
C931        C  0.31042365  0.91921292  0.73562637     0.75000
C932        C  0.39176417  0.99710604  0.75814401     0.77400
Cd933      Cd  0.32330586  0.99434063  0.75700987     1.37500
O934        O  0.28849628  0.53123672  0.71737644    -0.57600
O935        O  0.37563575  0.99184800  0.73482937    -0.56400
C936        C  0.28496087  0.00055342  0.80813501     0.77300
O937        O  0.37599132  0.00060068  0.78159780    -0.58800
O938        O  0.32600958  0.56230055  0.73978925    -0.57200
O939        O  0.31408204  0.92587866  0.76264696    -0.57200
O940        O  0.27325842  0.00111645  0.78243810    -0.56400
C941        C  0.23176512  0.01540461  0.82891591    -0.26100
C942        C  0.26370906  0.00358580  0.83377408    -0.14200
C943        C  0.27412143  0.99444534  0.86258996     0.36400
C944        C  0.25226213  0.99748557  0.88577668    -0.25600
C945        C  0.22054078  0.00942089  0.88061759    -0.14800
C946        C  0.21022663  0.01842180  0.85193421     0.37500
N947        N  0.17781461  0.02998349  0.84551846    -0.89100
H948        H  0.22331648  0.02244306  0.80700153     0.21400
H949        H  0.25984469  0.99031007  0.90791908     0.18600
N950        N  0.29882147  0.49044349  0.86523440    -0.88100
H951        H  0.16170462  0.55195045  0.84578617     0.36000
H952        H  0.15500832  0.50494003  0.84147607     0.41100
H953        H  0.30910359  0.95537075  0.85819591     0.40700
H954        H  0.31030792  0.97722091  0.89067635     0.35600
C955        C  0.13318890  0.91876118  0.92828453    -0.26100
C956        C  0.14604922  0.94437101  0.94864033    -0.14200
C957        C  0.14497409  0.93594568  0.97884908     0.36400
C958        C  0.13162838  0.90148926  0.98800582    -0.25600
C959        C  0.11991682  0.87511490  0.96754928    -0.14800
C960        C  0.11990060  0.88428953  0.93740354     0.37500
N961        N  0.10640465  0.85868944  0.91618039    -0.89100
H962        H  0.13350896  0.92579526  0.90514398     0.18600
H963        H  0.13148483  0.90545668  0.51066479     0.18600
N964        N  0.15832634  0.96181874  0.99997100    -0.88100
H965        H  0.10870924  0.86958945  0.89496644     0.36000
H966        H  0.08171605  0.85678959  0.92016377     0.41100
H967        H  0.18307784  0.96350463  0.99635864     0.40700
H968        H  0.15242489  0.96448100  0.51809026     0.35600
C969        C  0.12086368  0.60870435  0.92262843    -0.26100
C970        C  0.14167994  0.58580374  0.93938409    -0.14200
C971        C  0.15341238  0.59878827  0.96663362     0.36400
C972        C  0.14379992  0.63410887  0.97686173    -0.25600
C973        C  0.12286118  0.65713724  0.96030984    -0.14800
C974        C  0.11120345  0.64420380  0.93287470     0.37500
N975        N  0.08869743  0.66571232  0.91557799    -0.89100
H976        H  0.11189109  0.59876232  0.90163110     0.18600
H977        H  0.14994966  0.64529839  0.50885446     0.18600
N978        N  0.17558891  0.57694757  0.98405692    -0.88100
H979        H  0.09941756  0.69130543  0.90966808     0.36000
H980        H  0.06851862  0.67139134  0.92835264     0.41100
H981        H  0.19588879  0.57119826  0.97145178     0.40700
H982        H  0.15796825  0.55279357  0.49812534     0.35600
C983        C  0.28341258  0.81623853  0.73001112    -0.26100
C984        C  0.28401328  0.81113147  0.69958672    -0.14200
C985        C  0.29588922  0.84023677  0.68147036     0.36400
C986        C  0.30520333  0.87470751  0.69399513    -0.25600
C987        C  0.30286404  0.88090979  0.72427529    -0.14800
C988        C  0.29230565  0.85101804  0.74261698     0.37500
N989        N  0.28935144  0.85635203  0.77370085    -0.89100
H990        H  0.27412403  0.79379861  0.74378213     0.18600
H991        H  0.31376581  0.89714769  0.67985039     0.18600
N992        N  0.29774095  0.83488323  0.65029591    -0.88100
H993        H  0.28224686  0.83122856  0.78392657     0.36000
H994        H  0.27072658  0.87577293  0.77695990     0.41100
H995        H  0.31439254  0.81327940  0.64656603     0.40700
H996        H  0.30661538  0.85917477  0.64003469     0.35600
C997        C  0.30469215  0.65924145  0.68656244    -0.26100
C998        C  0.27249750  0.67015080  0.68991815    -0.14200
C999        C  0.24980727  0.64373986  0.70026124     0.36400
C1000       C  0.26020419  0.60741143  0.70844956    -0.25600
C1001       C  0.29273961  0.59724150  0.70664081    -0.14800
C1002       C  0.31502870  0.62278661  0.69423987     0.37500
N1003       N  0.34801764  0.61269978  0.68886590    -0.89100
H1004       H  0.32186306  0.67911306  0.67758789     0.18600
H1005       H  0.24317360  0.58764916  0.71778963     0.18600
N1006       N  0.21657323  0.65433611  0.70331200    -0.88100
H1007       H  0.35188454  0.61579525  0.66636815     0.36000
H1008       H  0.35237006  0.58418107  0.69340647     0.41100
H1009       H  0.21544942  0.67553941  0.71919184     0.40700
H1010       H  0.20305970  0.63158386  0.71114960     0.35600
C1011       C  0.21898670  0.76177639  0.60061289    -0.26100
C1012       C  0.20638911  0.75701942  0.62861511    -0.14200
C1013       C  0.17294243  0.75856086  0.63290233     0.36400
C1014       C  0.15246160  0.76419734  0.60878159    -0.25600
C1015       C  0.16489421  0.76815207  0.58037203    -0.14800
C1016       C  0.19867067  0.76766086  0.57636571     0.37500
N1017       N  0.21231504  0.77317331  0.54783157    -0.89100
H1018       H  0.24485742  0.76099033  0.59775032     0.18600
H1019       H  0.12669586  0.76461953  0.61222270     0.18600
N1020       N  0.15932305  0.75418431  0.66142459    -0.88100
H1021       H  0.23740650  0.77088877  0.54875403     0.36000
H1022       H  0.20717211  0.80095963  0.54133779     0.41100
H1023       H  0.16882206  0.77523024  0.67502720     0.40700
H1024       H  0.16642224  0.72787193  0.66984833     0.35600
C1025       C  0.94360207  0.75687805  0.52728025    -0.26100
C1026       C  0.92925778  0.74564290  0.50065920    -0.14200
C1027       C  0.94382163  0.72780252  0.98089503     0.36400
C1028       C  0.97706287  0.73421628  0.98142975    -0.25600
C1029       C  0.99632275  0.75840350  0.50472950    -0.14800
C1030       C  0.97684851  0.76364631  0.52954896     0.37500
N1031       N  0.99066348  0.77645491  0.55678283    -0.89100
H1032       H  0.92873340  0.76116496  0.54634440     0.18600
H1033       H  0.99153371  0.72393537  0.96350263     0.18600
N1034       N  0.92943696  0.70767823  0.95674661    -0.88100
H1035       H  0.97307121  0.77831133  0.57293230     0.36000
H1036       H  0.99911687  0.80396953  0.55339859     0.41100
H1037       H  0.92066158  0.68204716  0.96494247     0.40700
H1038       H  0.94668895  0.70074150  0.94114522     0.35600
C1039       C  0.74997764  0.74760049  0.62200123    -0.26100
C1040       C  0.71691569  0.74832060  0.61575551    -0.14200
C1041       C  0.70599070  0.74744634  0.58647542     0.36400
C1042       C  0.72824467  0.74517153  0.56390013    -0.25600
C1043       C  0.76152433  0.74378761  0.56985121    -0.14800
C1044       C  0.77255528  0.74571780  0.59929149     0.37500
N1045       N  0.80642934  0.74601650  0.60607236    -0.89100
H1046       H  0.75811315  0.74862106  0.64463718     0.18600
H1047       H  0.71929957  0.74400260  0.54152007     0.18600
N1048       N  0.67235942  0.74836039  0.57916399    -0.88100
H1049       H  0.81029437  0.74672075  0.62875722     0.36000
H1050       H  0.81586622  0.77122190  0.59774821     0.41100
H1051       H  0.66250484  0.77324058  0.58758105     0.40700
H1052       H  0.66122067  0.72532767  0.58928958     0.35600
C1053       C  0.44097948  0.50495561  0.72957352    -0.26100
C1054       C  0.42715596  0.99951296  0.75724426    -0.14200
C1055       C  0.44727717  0.98760110  0.78069740     0.36400
C1056       C  0.48068269  0.98816336  0.77733265    -0.25600
C1057       C  0.49466339  0.00047933  0.75104957    -0.14800
C1058       C  0.47464468  0.50571783  0.72748521     0.37500
N1059       N  0.48921309  0.51252922  0.69949969    -0.89100
H1060       H  0.42661666  0.50947122  0.70989379     0.18600
H1061       H  0.49579119  0.97828661  0.79531496     0.18600
N1062       N  0.43463045  0.97367187  0.80775238    -0.88100
H1063       H  0.47170132  0.51917004  0.68360318     0.36000
H1064       H  0.49960392  0.48713542  0.69277527     0.41100
H1065       H  0.41926875  0.95097174  0.80322339     0.40700
H1066       H  0.42152146  0.99529371  0.81765746     0.35600
C1067       C  0.64060326  0.64904435  0.66821566    -0.26100
C1068       C  0.64859816  0.67894848  0.68712421    -0.14200
C1069       C  0.64558707  0.67375159  0.71767571     0.36400
C1070       C  0.63390911  0.63918364  0.72852959    -0.25600
C1071       C  0.62584842  0.60925936  0.70963550    -0.14800
C1072       C  0.62925417  0.61431372  0.67906372     0.37500
N1073       N  0.62089999  0.58445516  0.65907027    -0.89100
H1074       H  0.64271098  0.65304342  0.64475387     0.18600
H1075       H  0.63186567  0.63529608  0.75200369     0.18600
N1076       N  0.65506459  0.70323135  0.73760869    -0.88100
H1077       H  0.62550034  0.59253263  0.63744775     0.36000
H1078       H  0.59604502  0.58024709  0.66039110     0.41100
H1079       H  0.67984632  0.70729624  0.73540970     0.40700
H1080       H  0.65130102  0.69491284  0.75932196     0.35600
C1081       C  0.62241569  0.88372235  0.67443740    -0.26100
C1082       C  0.62458681  0.89079359  0.70464616    -0.14200
C1083       C  0.63769929  0.86288726  0.72355657     0.36400
C1084       C  0.64730631  0.82801943  0.71200919    -0.25600
C1085       C  0.64505341  0.82079491  0.68188815    -0.14800
C1086       C  0.63245954  0.84886813  0.66282819     0.37500
N1087       N  0.62974828  0.84176900  0.63189006    -0.89100
H1088       H  0.61256769  0.90527609  0.65993830     0.18600
H1089       H  0.65762966  0.80672188  0.72647302     0.18600
N1090       N  0.64229117  0.87052778  0.75426828    -0.88100
H1091       H  0.62013367  0.86533102  0.62095468     0.36000
H1092       H  0.61333035  0.81967379  0.62895457     0.41100
H1093       H  0.65927757  0.89224368  0.75610966     0.40700
H1094       H  0.65218609  0.84703008  0.76506946     0.35600
C1095       C  0.80628331  0.57949186  0.91942933    -0.26100
C1096       C  0.78975925  0.55198451  0.93559217    -0.14200
C1097       C  0.78052537  0.56008947  0.96462498     0.36400
C1098       C  0.78796648  0.59531247  0.97680968    -0.25600
C1099       C  0.80402504  0.62313474  0.96050483    -0.14800
C1100       C  0.81374325  0.61492470  0.93163561     0.37500
N1101       N  0.83129704  0.64242399  0.91490575    -0.89100
H1102       H  0.81318997  0.57330075  0.89711286     0.18600
H1103       H  0.78022073  0.60139027  0.99891043     0.18600
N1104       N  0.76224580  0.53386784  0.98173046    -0.88100
H1105       H  0.83639499  0.63200845  0.89404244     0.36000
H1106       H  0.85347233  0.64656912  0.92547431     0.41100
H1107       H  0.77586180  0.50933959  0.98503089     0.40700
H1108       H  0.74130271  0.52689614  0.97004403     0.35600
C1109       C  0.76185765  0.84803682  0.95348872    -0.26100
C1110       C  0.79452987  0.84151252  0.95976980    -0.14200
C1111       C  0.81719621  0.87041834  0.95413457     0.36400
C1112       C  0.80660118  0.90486325  0.94186612    -0.25600
C1113       C  0.77386616  0.91136837  0.93574957    -0.14800
C1114       C  0.75131699  0.88274080  0.94199585     0.37500
N1115       N  0.71754972  0.88917646  0.93754743    -0.89100
H1116       H  0.74418886  0.82637114  0.95820595     0.18600
H1117       H  0.82400267  0.92674842  0.93698311     0.18600
N1118       N  0.85090248  0.86447642  0.96004572    -0.88100
H1119       H  0.70882675  0.86858315  0.92311920     0.36000
H1120       H  0.70605343  0.88556334  0.95763224     0.41100
H1121       H  0.86694123  0.88913939  0.45159757     0.40700
H1122       H  0.86217088  0.84411025  0.44099581     0.35600
C1123       C  0.72919288  0.50031097  0.83316649    -0.26100
C1124       C  0.72111320  0.48794515  0.86127812    -0.14200
C1125       C  0.68882272  0.47976966  0.86789208     0.36400
C1126       C  0.66503109  0.48404035  0.84601374    -0.25600
C1127       C  0.67293447  0.49618010  0.81763595    -0.14800
C1128       C  0.70548745  0.50467375  0.81121569     0.37500
N1129       N  0.71441932  0.51812059  0.78264682    -0.89100
H1130       H  0.75408520  0.50693631  0.82847166     0.18600
H1131       H  0.64024175  0.47749998  0.85111461     0.18600
N1132       N  0.68024666  0.46817857  0.89702186    -0.88100
H1133       H  0.73932839  0.52195710  0.78145324     0.36000
H1134       H  0.70403644  0.54486106  0.77974128     0.41100
H1135       H  0.67288250  0.94447885  0.90257203     0.40700
H1136       H  0.63867214  0.96831408  0.89600339     0.35600
loop_ 
_geom_bond_atom_site_label_1 
_geom_bond_atom_site_label_2 
_geom_bond_distance 
_geom_bond_site_symmetry_2 
_ccdc_geom_bond_type 
C1            C2   1.400       .  A
C1          C574   1.406   1_545  A
C1          C244   1.482       .  S
C2            C3   1.396   1_545  A
C2            H7   1.084       .  S
C3          C572   1.395       .  A
C3          C272   1.467       .  S
C4            C5   1.399       .  A
C4          C571   1.396       .  A
C4            H8   1.084       .  S
C5            C6   1.404       .  A
C5          C261   1.474       .  S
C6          C569   1.405       .  A
C6            H9   1.084       .  S
O10          C13   1.267       .  A
O10        Cd583   2.463       .  S
C11         C219   1.478       .  S
C11          O20   1.266       .  A
C11          O16   1.267       .  A
O12          C18   1.266       .  A
O12         Cd15   2.469   1_545  S
C13         C230   1.476       .  S
C13          O21   1.264       .  A
C14         C275   1.473       .  S
C14          O19   1.268       .  A
C14         O585   1.264   1_565  A
Cd15         O22   2.422       .  S
Cd15         O20   2.441   1_565  S
Cd15         O16   2.454   1_565  S
Cd15         O19   2.441       .  S
Cd15        O578   2.472       .  S
Cd15        O589   2.440       .  S
Cd15        O585   2.412   1_565  S
O17         C582   1.265       .  A
O17        Cd583   2.421       .  S
C18         C773   1.481       .  S
C18          O22   1.263   1_545  A
O21        Cd583   2.423       .  S
C23          C24   1.402       .  A
C23          C28   1.400       .  A
C23         C216   1.476       .  S
C24          C25   1.400       .  A
C24          H29   1.084       .  S
C25          C26   1.398       .  A
C25         C188   1.467       .  S
C26          C27   1.401       .  A
C26          H30   1.084       .  S
C27          C28   1.402       .  A
C27         C233   1.476       .  S
C28          H31   1.084       .  S
O32          C35   1.266       .  A
O32        Cd321   2.470       .  S
C33         C258   1.472       .  S
C33          O38   1.265       .  A
C33         O326   1.263       .  A
O34          C40   1.267       .  A
O34         Cd37   2.467   1_554  S
C35         C247   1.482       .  S
C35         O327   1.264       .  A
C36         C174   1.477       .  S
C36          O41   1.266       .  A
C36         O323   1.265   1_554  A
Cd37         O44   2.424   1_556  S
Cd37         O43   2.454       .  S
Cd37         O42   2.447       .  S
Cd37         O41   2.465   1_556  S
Cd37        O316   2.470       .  S
Cd37        O322   2.455       .  S
Cd37        O323   2.429       .  S
O38        Cd321   2.449       .  S
O39         C320   1.265       .  A
O39        Cd321   2.444       .  S
C40         C191   1.478       .  S
C40          O44   1.264       .  A
O42         C317   1.263       .  A
O43         C319   1.264       .  A
C45          C46   1.405       .  A
C45          C50   1.403       .  A
C45         C132   1.481       .  S
C46          C47   1.406       .  A
C46          H51   1.084       .  S
C47          C48   1.401       .  A
C47         C146   1.478       .  S
C48          C49   1.395       .  A
C48          H52   1.084       .  S
C49          C50   1.399       .  A
C49         C160   1.471       .  S
C50          H53   1.084       .  S
O54          C57   1.265       .  A
O54        Cd343   2.473       .  S
C55         C121   1.475       .  S
C55          O60   1.267       .  A
C55         O348   1.264       .  A
O56          C62   1.268       .  A
O56         Cd59   2.454       .  S
C57         C107   1.483       .  S
C57         O349   1.265       .  A
C58         C177   1.477   1_455  S
C58          O63   1.266       .  A
C58         O345   1.264   1_554  A
Cd59         O66   2.418       .  S
Cd59         O65   2.461       .  S
Cd59         O64   2.418       .  S
Cd59         O63   2.466       .  S
Cd59        O338   2.442   1_554  S
Cd59        O344   2.468   1_554  S
Cd59        O345   2.437   1_554  S
O60        Cd343   2.476       .  S
O61         C342   1.262       .  A
O61        Cd343   2.451       .  S
C62         C163   1.477       .  S
C62          O66   1.264       .  A
O64         C339   1.264   1_554  A
O65         C341   1.265   1_554  A
C67          C68   1.405       .  A
C67          C72   1.405       .  A
C67         C104   1.483       .  S
C68         C637   1.402       .  A
C68         H641   1.084       .  S
C69          C70   1.399       .  A
C69         C636   1.402       .  A
C69         C118   1.471       .  S
C70         C639   1.398       .  A
C70          H74   1.084       .  S
C71          C72   1.403       .  A
C71         C638   1.397       .  A
C71          C93   1.472       .  S
C72          H75   1.084       .  S
H73         C636   1.084       .  S
O76          C79   1.265       .  A
O76         Cd81   2.437       .  S
C77         C149   1.471       .  S
C77          O86   1.263       .  A
C77          O82   1.266       .  A
O78          C84   1.267       .  A
O78         Cd81   2.474       .  S
C79         C135   1.480       .  S
C79          O87   1.265       .  A
C80         C202   1.483       .  S
C80          O85   1.266       .  A
C80          O83   1.265       .  A
Cd81         O88   2.429       .  S
Cd81         O87   2.470       .  S
Cd81         O85   2.469       .  S
Cd81         O83   2.428       .  S
Cd81        O654   2.446       .  S
Cd81        O650   2.455       .  S
O82        Cd649   2.459   1_545  S
C84          C90   1.482       .  S
C84          O88   1.264       .  A
O86        Cd649   2.441   1_545  S
C89          C90   1.407       .  A
C89          C94   1.395       .  A
C89          H96   1.084       .  S
C90          C91   1.416       .  A
C91          C92   1.406       .  A
C91         N666   1.437       .  S
C92          C93   1.401       .  A
C92          H97   1.084       .  S
C93          C94   1.409       .  A
C94          N95   1.433       .  S
N95         H667   1.044       .  S
N95         H668   1.046       .  S
N98         C659   1.437   1_565  S
N98         H669   1.045       .  S
N98         H670   1.046       .  S
H99         N663   1.045       .  S
H100        N663   1.046       .  S
H101        N666   1.046       .  S
H102        N666   1.045       .  S
C103        C104   1.403       .  A
C103        C108   1.408       .  A
C103        H110   1.084       .  S
C104        C105   1.411       .  A
C105        C106   1.406       .  A
C105        N112   1.438       .  S
C106        C107   1.405       .  A
C106        H395   1.084       .  S
C107        C108   1.413       .  A
C108        N109   1.438       .  S
N109        H113   1.045       .  S
N109        H114   1.046       .  S
H111        C390   1.084   1_554  S
N112        H115   1.046       .  S
N112        H400   1.045       .  S
H116        N396   1.046   1_554  S
C117        C118   1.402       .  A
C117        C122   1.400       .  A
C117        H124   1.084       .  S
C118        C119   1.409       .  A
C119        C120   1.393       .  A
C119        N126   1.433       .  S
C120        C121   1.404       .  A
C120        H409   1.084       .  S
C121        C122   1.416       .  A
C122        N123   1.432       .  S
N123        H127   1.044       .  S
N123        H128   1.046       .  S
H125        C404   1.084   1_554  S
N126        H129   1.046       .  S
N126        H414   1.044       .  S
H130        N410   1.045   1_554  S
C131        C132   1.403       .  A
C131        C136   1.407       .  A
C131        H138   1.084       .  S
C132        C133   1.411       .  A
C133        C134   1.401       .  A
C133        N140   1.438       .  S
C134        C135   1.404       .  A
C134        H139   1.084       .  S
C135        C136   1.414       .  A
C136        N137   1.438       .  S
N137        H141   1.046       .  S
N137        H142   1.046       .  S
N140        H143   1.046       .  S
N140        H144   1.046       .  S
C145        C146   1.402       .  A
C145        C150   1.401       .  A
C145        H152   1.084       .  S
C146        C147   1.411       .  A
C147        C148   1.401       .  A
C147        N154   1.438       .  S
C148        C149   1.402       .  A
C148        H153   1.084       .  S
C149        C150   1.419       .  A
C150        N151   1.440       .  S
N151        H155   1.046       .  S
N151        H156   1.042       .  S
N154        H157   1.046       .  S
N154        H158   1.045       .  S
C159        C160   1.399       .  A
C159        C164   1.402       .  A
C159        H166   1.084       .  S
C160        C161   1.411       .  A
C161        C162   1.396       .  A
C161        N168   1.433       .  S
C162        C163   1.405       .  A
C162        H167   1.084       .  S
C163        C164   1.416       .  A
C164        N165   1.438       .  S
N165        H169   1.046       .  S
N165        H170   1.046       .  S
N168        H171   1.045       .  S
N168        H172   1.044       .  S
C173        C174   1.404       .  A
C173        C178   1.406       .  A
C173        H180   1.084       .  S
C174        C459   1.411   1_554  A
C175        C176   1.405       .  A
C175        C458   1.414       .  A
C175        N182   1.438       .  S
C176        C461   1.405       .  A
C176        H181   1.084       .  S
C177        C178   1.412       .  A
C177        C460   1.404   1_554  A
C178        N179   1.438       .  S
N179        H183   1.046       .  S
N179        H184   1.046       .  S
N182        H185   1.046       .  S
N182        H186   1.045       .  S
C187        C188   1.400       .  A
C187        C192   1.407       .  A
C187        H194   1.084       .  S
C188        C189   1.406       .  A
C189        C190   1.393       .  A
C189        N196   1.433       .  S
C190        C191   1.406       .  A
C190        H195   1.084       .  S
C191        C192   1.415       .  A
C192        N193   1.438       .  S
N193        H197   1.046       .  S
N193        H198   1.045       .  S
N196        H199   1.045       .  S
N196        H200   1.045       .  S
C201        C206   1.396       .  A
C201        C770   1.404       .  A
C201        H208   1.084       .  S
C202        C203   1.417       .  A
C202        C769   1.405       .  A
C203        C204   1.398       .  A
C203        N210   1.432       .  S
C204        C205   1.405       .  A
C204        H209   1.084       .  S
C205        C774   1.415       .  A
C205        C586   1.482       .  S
C206        C773   1.410       .  A
C206        N207   1.433       .  S
N207        H211   1.045       .  S
N207        H212   1.046   1_545  S
N210        H213   1.046       .  S
N210        H214   1.044       .  S
C215        C216   1.402       .  A
C215        C220   1.405       .  A
C215        H222   1.084       .  S
C216        C217   1.410       .  A
C217        C218   1.402       .  A
C217        N224   1.438       .  S
C218        C219   1.404       .  A
C218        H223   1.084       .  S
C219        C220   1.413       .  A
C220        N221   1.438       .  S
N221        H225   1.046       .  S
N221        H226   1.046       .  S
N224        H227   1.046       .  S
N224        H228   1.046       .  S
C229        C230   1.405       .  A
C229        C234   1.405       .  A
C229        H236   1.084       .  S
C230        C231   1.414       .  A
C231        C232   1.400       .  A
C231        N238   1.438       .  S
C232        C233   1.400       .  A
C232        H237   1.084       .  S
C233        C234   1.410       .  A
C234        N235   1.438       .  S
N235        H239   1.046       .  S
N235        H240   1.046       .  S
N238        H241   1.046       .  S
N238        H242   1.046       .  S
C243        C244   1.405       .  A
C243        C248   1.401       .  A
C243        H250   1.084       .  S
C244        C245   1.414       .  A
C245        C246   1.398       .  A
C245        N252   1.433       .  S
C246        C247   1.406       .  A
C246        H251   1.084       .  S
C247        C248   1.411       .  A
C248        N249   1.432       .  S
N249        H253   1.046       .  S
N249        H254   1.046       .  S
N252        H255   1.043       .  S
N252        H256   1.046       .  S
C257        C258   1.401       .  A
C257        C262   1.398       .  A
C257        H264   1.084       .  S
C258        C259   1.410       .  A
C259        C260   1.404       .  A
C259        N266   1.432       .  S
C260        C261   1.402       .  A
C260        H265   1.084       .  S
C261        C262   1.408       .  A
C262        N263   1.433       .  S
N263        H267   1.046       .  S
N263        H268   1.046       .  S
N266        H553   1.045       .  S
N266        H554   1.046       .  S
H269        N550   1.044       .  S
H270        N550   1.046       .  S
C271        C272   1.399   1_545  A
C271        C276   1.400       .  A
C271        H278   1.084       .  S
C272        C273   1.405       .  A
C273        C274   1.398       .  A
C273        N280   1.433       .  S
C274        C275   1.405       .  A
C274        H279   1.084       .  S
C275        C276   1.415   1_565  A
C276        N277   1.438       .  S
N277        H281   1.046       .  S
N277        H282   1.046       .  S
N280        H851   1.045       .  S
N280        H852   1.046       .  S
H283        N848   1.046       .  S
H284        N848   1.045       .  S
C285        C286   1.401       .  A
C285        C858   1.404   1_545  A
C285        C528   1.479       .  S
C286        C287   1.397   1_545  A
C286        H291   1.084       .  S
C287        C856   1.397       .  A
C287        C556   1.467       .  S
C288        C855   1.399       .  A
C288        C289   1.404       .  A
C288        H292   1.084       .  S
C289        C290   1.407       .  A
C289        C545   1.483       .  S
C290        C853   1.405       .  A
C290        H293   1.083       .  S
O294        C297   1.267       .  A
O294       Cd867   2.448       .  S
C295        C503   1.481       .  S
C295        O304   1.264       .  A
C295        O300   1.266       .  A
O296        C302   1.265       .  A
O296       Cd299   2.462       .  S
C297        C514   1.478       .  S
C297        O305   1.265       .  A
C298        C559   1.474       .  S
C298        O303   1.268   1_565  A
C298        O869   1.265       .  A
Cd299       O862   2.476       .  S
Cd299       O306   2.429   1_565  S
Cd299       O873   2.427       .  S
Cd299       O304   2.452   1_565  S
Cd299       O300   2.459   1_565  S
Cd299       O303   2.450   1_565  S
Cd299       O869   2.419       .  S
O301        C866   1.262       .  A
O301       Cd867   2.420       .  S
C302       C1057   1.478   1_565  S
C302        O306   1.263   1_565  A
O305       Cd867   2.446       .  S
C307        C308   1.400       .  A
C307        C312   1.404       .  A
C307        C500   1.479       .  S
C308        C309   1.397       .  A
C308        H313   1.084       .  S
C309        C310   1.401       .  A
C309        C472   1.474       .  S
C310        C311   1.406       .  A
C310        H314   1.083       .  S
C311        C312   1.406       .  A
C311        C517   1.485       .  S
C312        H315   1.084       .  S
O316        C319   1.265       .  A
C317        C542   1.473       .  S
C317        O322   1.266       .  A
O318        C324   1.267       .  A
O318       Cd321   2.485       .  S
C319        C531   1.482       .  S
C320        C458   1.485       .  S
C320        O325   1.268       .  A
Cd321       O328   2.442       .  S
Cd321       O327   2.440       .  S
Cd321       O326   2.454       .  S
Cd321       O325   2.469       .  S
C324        C475   1.487       .  S
C324        O328   1.263       .  A
C329        C330   1.405       .  A
C329        C334   1.402       .  A
C329        C416   1.483       .  S
C330        C331   1.407       .  A
C330        H335   1.084       .  S
C331        C332   1.405       .  A
C331        C430   1.483       .  S
C332        C333   1.400       .  A
C332        H336   1.083       .  S
C333        C334   1.398       .  A
C333        C444   1.476       .  S
C334        H337   1.084       .  S
O338        C341   1.265       .  A
C339        C405   1.479       .  S
C339        O344   1.266       .  A
O340        C346   1.269       .  A
O340       Cd343   2.468       .  S
C341        C391   1.475       .  S
C342        C461   1.483   1_455  S
C342        O347   1.266       .  A
Cd343       O350   2.442       .  S
Cd343       O349   2.475       .  S
Cd343       O348   2.418       .  S
Cd343       O347   2.488       .  S
C346        C447   1.483       .  S
C346        O350   1.265       .  A
C351        C352   1.403       .  A
C351        C356   1.403       .  A
C351        C388   1.479       .  S
C352        C921   1.402       .  A
C352        H925   1.084       .  S
C353        C920   1.401       .  A
C353        C354   1.400       .  A
C353        C402   1.473       .  S
C354        C923   1.398       .  A
C354        H358   1.084       .  S
C355        C922   1.398       .  A
C355        C356   1.399       .  A
C355        C377   1.469       .  S
C356        H359   1.084       .  S
H357        C920   1.083       .  S
O360        C363   1.265       .  A
O360       Cd365   2.446       .  S
C361        C433   1.476       .  S
C361        O370   1.263       .  A
C361        O366   1.267       .  A
O362        C368   1.268       .  A
O362       Cd365   2.482       .  S
C363        C419   1.481       .  S
C363        O371   1.264       .  A
C364        C486   1.485       .  S
C364        O369   1.267       .  A
C364        O367   1.265       .  A
Cd365       O372   2.411       .  S
Cd365       O371   2.455       .  S
Cd365       O938   2.434       .  S
Cd365       O934   2.457       .  S
Cd365       O369   2.471       .  S
Cd365       O367   2.427       .  S
O366       Cd933   2.474   1_545  S
C368        C374   1.482       .  S
C368        O372   1.263       .  A
O370       Cd933   2.448   1_545  S
C373        C374   1.407       .  A
C373        C378   1.392       .  A
C373        H380   1.084       .  S
C374        C375   1.416       .  A
C375        C376   1.407       .  A
C375        N950   1.438       .  S
C376        C377   1.401       .  A
C376        H381   1.084       .  S
C377        C378   1.406       .  A
C378        N379   1.433       .  S
N379        H951   1.044       .  S
N379        H952   1.046       .  S
N382        C943   1.438       .  S
N382        H953   1.045       .  S
N382        H954   1.047       .  S
H383        N947   1.045       .  S
H384        N947   1.045       .  S
H385        N950   1.046       .  S
H386        N950   1.045       .  S
C387        C388   1.402       .  A
C387        C392   1.402       .  A
C387        H394   1.084       .  S
C388        C389   1.412       .  A
C389        C390   1.405       .  A
C389        N396   1.438       .  S
C390        C391   1.404       .  A
C391        C392   1.410       .  A
C392        N393   1.438       .  S
N393        H397   1.045       .  S
N393        H398   1.046       .  S
N396        H399   1.045       .  S
C401        C402   1.403       .  A
C401        C406   1.398       .  A
C401        H408   1.084       .  S
C402        C403   1.411       .  A
C403        C404   1.393       .  A
C403        N410   1.434       .  S
C404        C405   1.405       .  A
C405        C406   1.417       .  A
C406        N407   1.432       .  S
N407        H411   1.045       .  S
N407        H412   1.045       .  S
N410        H413   1.044       .  S
C415        C416   1.403       .  A
C415        C420   1.403       .  A
C415        H422   1.084       .  S
C416        C417   1.413       .  A
C417        C418   1.402       .  A
C417        N424   1.438       .  S
C418        C419   1.404       .  A
C418        H423   1.083       .  S
C419        C420   1.413       .  A
C420        N421   1.432       .  S
N421        H425   1.045       .  S
N421        H426   1.046       .  S
N424        H427   1.046       .  S
N424        H428   1.045       .  S
C429        C430   1.404       .  A
C429        C434   1.403       .  A
C429        H436   1.084       .  S
C430        C431   1.411       .  A
C431        C432   1.403       .  A
C431        N438   1.433       .  S
C432        C433   1.403       .  A
C432        H437   1.084       .  S
C433        C434   1.410       .  A
C434        N435   1.432       .  S
N435        H439   1.045       .  S
N435        H440   1.046       .  S
N438        H441   1.046       .  S
N438        H442   1.045       .  S
C443        C444   1.401       .  A
C443        C448   1.404       .  A
C443        H450   1.084       .  S
C444        C445   1.411       .  A
C445        C446   1.398       .  A
C445        N452   1.433       .  S
C446        C447   1.406       .  A
C446        H451   1.084       .  S
C447        C448   1.416       .  A
C448        N449   1.438       .  S
N449        H453   1.045       .  S
N449        H454   1.046       .  S
N452        H455   1.045       .  S
N452        H456   1.044       .  S
C457        C458   1.406       .  A
C457        C462   1.407       .  A
C457        H464   1.083       .  S
C459        C460   1.402       .  A
C459        N466   1.438       .  S
C460        H465   1.084       .  S
C461        C462   1.412       .  A
C462        N463   1.438       .  S
N463        H467   1.045       .  S
N463        H468   1.046       .  S
N466        H469   1.046       .  S
N466        H470   1.045       .  S
C471        C472   1.402       .  A
C471        C476   1.406       .  A
C471        H478   1.084       .  S
C472        C473   1.413       .  A
C473        C474   1.399       .  A
C473        N480   1.440       .  S
C474        C475   1.408       .  A
C474        H479   1.084       .  S
C475        C476   1.415       .  A
C476        N477   1.437       .  S
N477        H481   1.046       .  S
N477        H482   1.045       .  S
N480        H483   1.042       .  S
N480        H484   1.046       .  S
C485       C1054   1.402   1_545  A
C485        C490   1.400       .  A
C485        H492   1.084       .  S
C486       C1053   1.404       .  A
C486        C487   1.416       .  A
C487        C488   1.401       .  A
C487        N494   1.432       .  S
C488        C489   1.406       .  A
C488        H493   1.084       .  S
C489       C1058   1.417       .  A
C489        C870   1.488       .  S
C490       C1057   1.414       .  A
C490        N491   1.438       .  S
N491        H495   1.047       .  S
N491        H496   1.044       .  S
N494        H497   1.046       .  S
N494        H498   1.044       .  S
C499        C500   1.402       .  A
C499        C504   1.403       .  A
C499        H506   1.084       .  S
C500        C501   1.410       .  A
C501        C502   1.404       .  A
C501        N508   1.438       .  S
C502        C503   1.406       .  A
C502        H507   1.083       .  S
C503        C504   1.413       .  A
C504        N505   1.438       .  S
N505        H509   1.045       .  S
N505        H510   1.046       .  S
N508        H511   1.046       .  S
N508        H512   1.046       .  S
C513        C514   1.403       .  A
C513        C518   1.404       .  A
C513        H520   1.084       .  S
C514        C515   1.413       .  A
C515        C516   1.404       .  A
C515        N522   1.439       .  S
C516        C517   1.405       .  A
C516        H521   1.084       .  S
C517        C518   1.413       .  A
C518        N519   1.438       .  S
N519        H523   1.046       .  S
N519        H524   1.045       .  S
N522        H525   1.046       .  S
N522        H526   1.046       .  S
C527        C528   1.403       .  A
C527        C532   1.405       .  A
C527        H534   1.084       .  S
C528        C529   1.413       .  A
C529        C530   1.397       .  A
C529        N536   1.433       .  S
C530        C531   1.406       .  A
C530        H535   1.084   1_556  S
C531        C532   1.414       .  A
C532        N533   1.438       .  S
N533        H537   1.046       .  S
N533        H538   1.046       .  S
N536        H539   1.043       .  S
N536        H540   1.046       .  S
C541        C542   1.400       .  A
C541        C546   1.398       .  A
C541        H548   1.084       .  S
C542        C543   1.413       .  A
C543        C544   1.408       .  A
C543        N550   1.438       .  S
C544        C545   1.404       .  A
C544        H549   1.084       .  S
C545        C546   1.410       .  A
C546        N547   1.432       .  S
N547        H551   1.046       .  S
N547        H552   1.045       .  S
C555        C556   1.398       .  A
C555        C560   1.402       .  A
C555        H562   1.084       .  S
C556        C557   1.406       .  A
C557        C558   1.403       .  A
C557        N564   1.438       .  S
C558        C559   1.404       .  A
C558        H563   1.084       .  S
C559        C560   1.415       .  A
C560        N561   1.438   1_565  S
N561        H565   1.046       .  S
N561        H566   1.046       .  S
N564       H1135   1.046       .  S
N564       H1136   1.045       .  S
H567       N1132   1.045       .  S
H568       N1132   1.045       .  S
C569        C570   1.401       .  A
C569        C812   1.476       .  S
C570        C571   1.399       .  A
C570        H575   1.084       .  S
C571        C840   1.470       .  S
C572        C573   1.401       .  A
C572        H576   1.083       .  S
C573        C574   1.409       .  A
C573        C829   1.484       .  S
C574        H577   1.081       .  S
O578        C581   1.267       .  A
C579        C787   1.477       .  S
C579        O588   1.265       .  A
C579        O584   1.267       .  A
O580        C586   1.267       .  A
O580       Cd583   2.465       .  S
C581        C798   1.481       .  S
C581        O589   1.263       .  A
C582        C843   1.475       .  S
C582        O587   1.268       .  A
Cd583       O590   2.423       .  S
Cd583       O588   2.439       .  S
Cd583       O584   2.447       .  S
Cd583       O587   2.453       .  S
C586        O590   1.263       .  A
C591        C592   1.401       .  A
C591        C596   1.406       .  A
C591        C784   1.480       .  S
C592        C593   1.396       .  A
C592        H597   1.084       .  S
C593        C594   1.396       .  A
C593        C756   1.466       .  S
C594        C595   1.403       .  A
C594        H598   1.084       .  S
C595        C596   1.407       .  A
C595        C801   1.484       .  S
C596        H599   1.084       .  S
O600        C603   1.265       .  A
O600       Cd889   2.465       .  S
C601        C826   1.470       .  S
C601        O894   1.264       .  A
C601        O606   1.266       .  A
O602        C608   1.267       .  A
O602       Cd605   2.473       .  S
C603        C815   1.478       .  S
C603        O895   1.265       .  A
C604        C742   1.480       .  S
C604        O609   1.268       .  A
C604        O891   1.265   1_554  A
Cd605       O884   2.463   1_554  S
Cd605       O612   2.414       .  S
Cd605       O611   2.464       .  S
Cd605       O610   2.448   1_554  S
Cd605       O890   2.465   1_554  S
Cd605       O609   2.469       .  S
Cd605       O891   2.417   1_554  S
O606       Cd889   2.450       .  S
O607        C888   1.264       .  A
O607       Cd889   2.428       .  S
C608        C759   1.482       .  S
C608        O612   1.264       .  A
O610        C885   1.263       .  A
O611        C887   1.265   1_554  A
C613        C614   1.406       .  A
C613        C618   1.399       .  A
C613        C700   1.479       .  S
C614        C615   1.407       .  A
C614        H619   1.084       .  S
C615        C616   1.404       .  A
C615        C714   1.481       .  S
C616        C617   1.398       .  A
C616        H620   1.084       .  S
C617        C618   1.396       .  A
C617        C728   1.469       .  S
C618        H621   1.084       .  S
O622        C625   1.265       .  A
O622       Cd911   2.442       .  S
C623        C689   1.471       .  S
C623        O916   1.265       .  A
C623        O628   1.266       .  A
O624        C630   1.269       .  A
O624       Cd627   2.454       .  S
C625        C675   1.477       .  S
C625        O917   1.265       .  A
C626        C745   1.474   1_455  S
C626        O631   1.265       .  A
C626        O913   1.263   1_554  A
Cd627       O906   2.450   1_554  S
Cd627       O634   2.416       .  S
Cd627       O633   2.444       .  S
Cd627       O632   2.428       .  S
Cd627       O912   2.474   1_554  S
Cd627       O631   2.469       .  S
Cd627       O913   2.421   1_554  S
O628       Cd911   2.453       .  S
O629        C910   1.264       .  A
O629       Cd911   2.425       .  S
C630        C731   1.478       .  S
C630        O634   1.266       .  A
O632        C907   1.264   1_554  A
O633        C909   1.264   1_554  A
C635        C636   1.403   1_565  A
C635        C640   1.403       .  A
C635        C672   1.481       .  S
C637        C638   1.398       .  A
C637        C686   1.473       .  S
C638        H642   1.084       .  S
C639        C640   1.399   1_545  A
C639        C661   1.468       .  S
C640        H643   1.084       .  S
O644        C647   1.266       .  A
O644       Cd649   2.472       .  S
C645        C717   1.470       .  S
C645        O654   1.265       .  A
C645        O650   1.265       .  A
O646        C652   1.266       .  A
O646       Cd649   2.473   1_545  S
C647        C703   1.482       .  S
C647        O655   1.265       .  A
C648        C770   1.484   1_565  S
C648        O653   1.266       .  A
C648        O651   1.265       .  A
Cd649       O656   2.427   1_565  S
Cd649       O655   2.450       .  S
Cd649       O653   2.467       .  S
Cd649       O651   2.418       .  S
C652        C658   1.483       .  S
C652        O656   1.264       .  A
C657        C658   1.407       .  A
C657        C662   1.393       .  A
C657        H664   1.084       .  S
C658        C659   1.417       .  A
C659        C660   1.407       .  A
C660        C661   1.400       .  A
C660        H665   1.084       .  S
C661        C662   1.406       .  A
C662        N663   1.433       .  S
C671        C672   1.403       .  A
C671        C676   1.402       .  A
C671        H678   1.084       .  S
C672        C673   1.411       .  A
C673        C674   1.404       .  A
C673        N680   1.438       .  S
C674        C675   1.405       .  A
C674        H963   1.084       .  S
C675        C676   1.412       .  A
C676        N677   1.438       .  S
N677        H681   1.046       .  S
N677        H682   1.045       .  S
H679        C958   1.084   1_554  S
N680        H683   1.047       .  S
N680        H968   1.044       .  S
H684        N964   1.046   1_554  S
C685        C686   1.402       .  A
C685        C690   1.397       .  A
C685        H692   1.084       .  S
C686        C687   1.412       .  A
C687        C688   1.397       .  A
C687        N694   1.433       .  S
C688        C689   1.404       .  A
C688        H977   1.084       .  S
C689        C690   1.413       .  A
C690        N691   1.433       .  S
N691        H695   1.044       .  S
N691        H696   1.046       .  S
H693        C972   1.084       .  S
N694        H697   1.045       .  S
N694        H982   1.044       .  S
H698        N978   1.044       .  S
C699        C700   1.400       .  A
C699        C704   1.404       .  A
C699        H706   1.084       .  S
C700        C701   1.411       .  A
C701        C702   1.405       .  A
C701        N708   1.438       .  S
C702        C703   1.405       .  A
C702        H707   1.084       .  S
C703        C704   1.415       .  A
C704        N705   1.438       .  S
N705        H709   1.046       .  S
N705        H710   1.046       .  S
N708        H711   1.045       .  S
N708        H712   1.046       .  S
C713        C714   1.404       .  A
C713        C718   1.403       .  A
C713        H720   1.084       .  S
C714        C715   1.411       .  A
C715        C716   1.402       .  A
C715        N722   1.438       .  S
C716        C717   1.402       .  A
C716        H721   1.084       .  S
C717        C718   1.417       .  A
C718        N719   1.440       .  S
N719        H723   1.046       .  S
N719        H724   1.043       .  S
N722        H725   1.046       .  S
N722        H726   1.045       .  S
C727        C728   1.398       .  A
C727        C732   1.401       .  A
C727        H734   1.084       .  S
C728        C729   1.410       .  A
C729        C730   1.398       .  A
C729        N736   1.433       .  S
C730        C731   1.406       .  A
C730        H735   1.084       .  S
C731        C732   1.416       .  A
C732        N733   1.438       .  S
N733        H737   1.046       .  S
N733        H738   1.046       .  S
N736        H739   1.046       .  S
N736        H740   1.045       .  S
C741        C742   1.406       .  A
C741        C746   1.406       .  A
C741        H748   1.083       .  S
C742       C1027   1.414   1_554  A
C743       C1026   1.415       .  A
C743        C744   1.401       .  A
C743        N750   1.439       .  S
C744       C1029   1.403       .  A
C744        H749   1.084       .  S
C745       C1028   1.401   1_554  A
C745        C746   1.410       .  A
C746        N747   1.438       .  S
N747        H751   1.045       .  S
N747        H752   1.046       .  S
N750        H753   1.046       .  S
N750        H754   1.045       .  S
C755        C756   1.399       .  A
C755        C760   1.406       .  A
C755        H762   1.084       .  S
C756        C757   1.406       .  A
C757        C758   1.393       .  A
C757        N764   1.433       .  S
C758        C759   1.408       .  A
C758        H763   1.084       .  S
C759        C760   1.417       .  A
C760        N761   1.437       .  S
N761        H765   1.046       .  S
N761        H766   1.045       .  S
N764        H767   1.045       .  S
N764        H768   1.046       .  S
C769        C774   1.401       .  A
C769        H776   1.083       .  S
C770        C771   1.419       .  A
C771        C772   1.401       .  A
C771        N778   1.432   1_545  S
C772        C773   1.405       .  A
C772        H777   1.084       .  S
C774        N775   1.439       .  S
N775        H779   1.046       .  S
N775        H780   1.045       .  S
N778        H781   1.046       .  S
N778        H782   1.045   1_565  S
C783        C784   1.404       .  A
C783        C788   1.403       .  A
C783        H790   1.084       .  S
C784        C785   1.411       .  A
C785        C786   1.403       .  A
C785        N792   1.438       .  S
C786        C787   1.405       .  A
C786        H791   1.084       .  S
C787        C788   1.412       .  A
C788        N789   1.438       .  S
N789        H793   1.045       .  S
N789        H794   1.046       .  S
N792        H795   1.046       .  S
N792        H796   1.046       .  S
C797        C798   1.403       .  A
C797        C802   1.403       .  A
C797        H804   1.083       .  S
C798        C799   1.415       .  A
C799        C800   1.404       .  A
C799        N806   1.438       .  S
C800        C801   1.403       .  A
C800        H805   1.084       .  S
C801        C802   1.413       .  A
C802        N803   1.438       .  S
N803        H807   1.046       .  S
N803        H808   1.045       .  S
N806        H809   1.046       .  S
N806        H810   1.046       .  S
C811        C812   1.403       .  A
C811        C816   1.403       .  A
C811        H818   1.084       .  S
C812        C813   1.412       .  A
C813        C814   1.397       .  A
C813        N820   1.433       .  S
C814        C815   1.404       .  A
C814        H819   1.084       .  S
C815        C816   1.411       .  A
C816        N817   1.432       .  S
N817        H821   1.046       .  S
N817        H822   1.046       .  S
N820        H823   1.044       .  S
N820        H824   1.045       .  S
C825        C826   1.399       .  A
C825        C830   1.398       .  A
C825        H832   1.084       .  S
C826        C827   1.411       .  A
C827        C828   1.404       .  A
C827        N834   1.438       .  S
C828        C829   1.404       .  A
C828        H833   1.083       .  S
C829        C830   1.414       .  A
C830        N831   1.433       .  S
N831        H835   1.046       .  S
N831        H836   1.045       .  S
N834       H1121   1.045       .  S
N834       H1122   1.046       .  S
H837       N1118   1.045       .  S
H838       N1118   1.046       .  S
C839        C840   1.399       .  A
C839        C844   1.402       .  A
C839        H846   1.084       .  S
C840        C841   1.406       .  A
C841        C842   1.400       .  A
C841        N848   1.433       .  S
C842        C843   1.404       .  A
C842        H847   1.084       .  S
C843        C844   1.415       .  A
C844        N845   1.438       .  S
N845        H849   1.045       .  S
N845        H850   1.046       .  S
C853        C854   1.402       .  A
C853       C1096   1.479       .  S
C854        C855   1.399       .  A
C854        H859   1.084       .  S
C855       C1124   1.473       .  S
C856        C857   1.403       .  A
C856        H860   1.084       .  S
C857        C858   1.406       .  A
C857       C1113   1.483       .  S
C858        H861   1.083       .  S
O862        C865   1.267       .  A
C863       C1071   1.485       .  S
C863        O872   1.267       .  A
C863        O868   1.266       .  A
O864        C870   1.269       .  A
O864       Cd867   2.492       .  S
C865       C1082   1.476       .  S
C865        O873   1.264       .  A
C866       C1127   1.484       .  S
C866        O871   1.270       .  A
Cd867       O874   2.439       .  S
Cd867       O872   2.460       .  S
Cd867       O868   2.457       .  S
Cd867       O871   2.486       .  S
C870        O874   1.263       .  A
C875        C876   1.404       .  A
C875        C880   1.406       .  A
C875       C1068   1.487       .  S
C876        C877   1.399       .  A
C876        H881   1.084       .  S
C877        C878   1.398       .  A
C877       C1040   1.468       .  S
C878        C879   1.401       .  A
C878        H882   1.084       .  S
C879        C880   1.406       .  A
C879       C1085   1.480       .  S
C880        H883   1.083       .  S
O884        C887   1.266       .  A
C885       C1110   1.478       .  S
C885        O890   1.266       .  A
O886        C892   1.267       .  A
O886       Cd889   2.468       .  S
C887       C1099   1.480       .  S
C888       C1026   1.483       .  S
C888        O893   1.267       .  A
Cd889       O896   2.428       .  S
Cd889       O895   2.448       .  S
Cd889       O894   2.431       .  S
Cd889       O893   2.461       .  S
C892       C1043   1.481       .  S
C892        O896   1.264       .  A
C897        C898   1.405       .  A
C897        C902   1.400       .  A
C897        C984   1.478       .  S
C898        C899   1.408       .  A
C898        H903   1.084       .  S
C899        C900   1.400       .  A
C899        C998   1.475       .  S
C900        C901   1.394       .  A
C900        H904   1.084       .  S
C901        C902   1.393       .  A
C901       C1012   1.461       .  S
C902        H905   1.084       .  S
O906        C909   1.266       .  A
C907        C973   1.472       .  S
C907        O912   1.266       .  A
O908        C914   1.268       .  A
O908       Cd911   2.462       .  S
C909        C959   1.476       .  S
C910       C1029   1.478   1_455  S
C910        O915   1.266       .  A
Cd911       O918   2.404       .  S
Cd911       O917   2.455       .  S
Cd911       O916   2.438       .  S
Cd911       O915   2.462       .  S
C914       C1015   1.477       .  S
C914        O918   1.264       .  A
C919        C920   1.400   1_565  A
C919        C924   1.402       .  A
C919        C956   1.475       .  S
C921        C922   1.398       .  A
C921        C970   1.469       .  S
C922        H926   1.084       .  S
C923        C924   1.398   1_545  A
C923        C945   1.467       .  S
C924        H927   1.084       .  S
O928        C931   1.267       .  A
O928       Cd933   2.453       .  S
C929       C1001   1.466       .  S
C929        O938   1.265       .  A
C929        O934   1.265       .  A
O930        C936   1.268   1_565  A
O930       Cd933   2.463       .  S
C931        C987   1.484       .  S
C931        O939   1.264       .  A
C932       C1054   1.474       .  S
C932        O937   1.267   1_565  A
C932        O935   1.265       .  A
Cd933       O940   2.404   1_565  S
Cd933       O939   2.463       .  S
Cd933       O937   2.459   1_565  S
Cd933       O935   2.409       .  S
C936        C942   1.477       .  S
C936        O940   1.264       .  A
C941        C942   1.406       .  A
C941        C946   1.391       .  A
C941        H948   1.084       .  S
C942        C943   1.415   1_545  A
C943        C944   1.406       .  A
C944        C945   1.400   1_565  A
C944        H949   1.084       .  S
C945        C946   1.408       .  A
C946        N947   1.433       .  S
C955        C956   1.401       .  A
C955        C960   1.402       .  A
C955        H962   1.084       .  S
C956        C957   1.410       .  A
C957        C958   1.403       .  A
C957        N964   1.438       .  S
C958        C959   1.405       .  A
C959        C960   1.412       .  A
C960        N961   1.438       .  S
N961        H965   1.046       .  S
N961        H966   1.046       .  S
N964        H967   1.045       .  S
C969        C970   1.402       .  A
C969        C974   1.400       .  A
C969        H976   1.084       .  S
C970        C971   1.409       .  A
C971        C972   1.394       .  A
C971        N978   1.433       .  S
C972        C973   1.403       .  A
C973        C974   1.415       .  A
C974        N975   1.432       .  S
N975        H979   1.044       .  S
N975        H980   1.046       .  S
N978        H981   1.046       .  S
C983        C984   1.401       .  A
C983        C988   1.407       .  A
C983        H990   1.084       .  S
C984        C985   1.410       .  A
C985        C986   1.401       .  A
C985        N992   1.438       .  S
C986        C987   1.404       .  A
C986        H991   1.083       .  S
C987        C988   1.418       .  A
C988        N989   1.438       .  S
N989        H993   1.046       .  S
N989        H994   1.046       .  S
N992        H995   1.045       .  S
N992        H996   1.046       .  S
C997        C998   1.402       .  A
C997       C1002   1.399       .  A
C997       H1004   1.084       .  S
C998        C999   1.411       .  A
C999       C1000   1.402       .  A
C999       N1006   1.438       .  S
C1000      C1001   1.401       .  A
C1000      H1005   1.084       .  S
C1001      C1002   1.415       .  A
C1002      N1003   1.439       .  S
N1003      H1007   1.046       .  S
N1003      H1008   1.043       .  S
N1006      H1009   1.046       .  S
N1006      H1010   1.045       .  S
C1011      C1012   1.395       .  A
C1011      C1016   1.399       .  A
C1011      H1018   1.084       .  S
C1012      C1013   1.406       .  A
C1013      C1014   1.397       .  A
C1013      N1020   1.432       .  S
C1014      C1015   1.407       .  A
C1014      H1019   1.084       .  S
C1015      C1016   1.417       .  A
C1016      N1017   1.438       .  S
N1017      H1021   1.046       .  S
N1017      H1022   1.046       .  S
N1020      H1023   1.046       .  S
N1020      H1024   1.046       .  S
C1025      C1026   1.406       .  A
C1025      C1030   1.405       .  A
C1025      H1032   1.083       .  S
C1027      C1028   1.400       .  A
C1027      N1034   1.439       .  S
C1028      H1033   1.084       .  S
C1029      C1030   1.411       .  A
C1030      N1031   1.438       .  S
N1031      H1035   1.046       .  S
N1031      H1036   1.046       .  S
N1034      H1037   1.046       .  S
N1034      H1038   1.045       .  S
C1039      C1040   1.400       .  A
C1039      C1044   1.407       .  A
C1039      H1046   1.084       .  S
C1040      C1041   1.407       .  A
C1041      C1042   1.394       .  A
C1041      N1048   1.433       .  S
C1042      C1043   1.407       .  A
C1042      H1047   1.084       .  S
C1043      C1044   1.416       .  A
C1044      N1045   1.438       .  S
N1045      H1049   1.046       .  S
N1045      H1050   1.045       .  S
N1048      H1051   1.046       .  S
N1048      H1052   1.045       .  S
C1053      C1058   1.403       .  A
C1053      H1060   1.084       .  S
C1054      C1055   1.413       .  A
C1055      C1056   1.398       .  A
C1055      N1062   1.432       .  S
C1056      C1057   1.406   1_565  A
C1056      H1061   1.084       .  S
C1058      N1059   1.438       .  S
N1059      H1063   1.047       .  S
N1059      H1064   1.044       .  S
N1062      H1065   1.046       .  S
N1062      H1066   1.045       .  S
C1067      C1068   1.405       .  A
C1067      C1072   1.406       .  A
C1067      H1074   1.084       .  S
C1068      C1069   1.412       .  A
C1069      C1070   1.405       .  A
C1069      N1076   1.438       .  S
C1070      C1071   1.405       .  A
C1070      H1075   1.083       .  S
C1071      C1072   1.414       .  A
C1072      N1073   1.438       .  S
N1073      H1077   1.046       .  S
N1073      H1078   1.046       .  S
N1076      H1079   1.045       .  S
N1076      H1080   1.046       .  S
C1081      C1082   1.404       .  A
C1081      C1086   1.407       .  A
C1081      H1088   1.084       .  S
C1082      C1083   1.413       .  A
C1083      C1084   1.401       .  A
C1083      N1090   1.439       .  S
C1084      C1085   1.401       .  A
C1084      H1089   1.084       .  S
C1085      C1086   1.413       .  A
C1086      N1087   1.438       .  S
N1087      H1091   1.046       .  S
N1087      H1092   1.046       .  S
N1090      H1093   1.046       .  S
N1090      H1094   1.045       .  S
C1095      C1096   1.403       .  A
C1095      C1100   1.406       .  A
C1095      H1102   1.084       .  S
C1096      C1097   1.413       .  A
C1097      C1098   1.399       .  A
C1097      N1104   1.433       .  S
C1098      C1099   1.404       .  A
C1098      H1103   1.084       .  S
C1099      C1100   1.413       .  A
C1100      N1101   1.438       .  S
N1101      H1105   1.046       .  S
N1101      H1106   1.046       .  S
N1104      H1107   1.044       .  S
N1104      H1108   1.046       .  S
C1109      C1110   1.403       .  A
C1109      C1114   1.400       .  A
C1109      H1116   1.084       .  S
C1110      C1111   1.415       .  A
C1111      C1112   1.406       .  A
C1111      N1118   1.438       .  S
C1112      C1113   1.404       .  A
C1112      H1117   1.084       .  S
C1113      C1114   1.410       .  A
C1114      N1115   1.433       .  S
N1115      H1119   1.046       .  S
N1115      H1120   1.045       .  S
C1123      C1124   1.398       .  A
C1123      C1128   1.405       .  A
C1123      H1130   1.084       .  S
C1124      C1125   1.408       .  A
C1125      C1126   1.404       .  A
C1125      N1132   1.438       .  S
C1126      C1127   1.405       .  A
C1126      H1131   1.083       .  S
C1127      C1128   1.419       .  A
C1128      N1129   1.438       .  S
N1129      H1133   1.046       .  S
N1129      H1134   1.046       .  S
