geometry optimzed in LAMMPS
_audit_creation_date              2020-11-30 
_audit_creation_method            'lammps2cif' 
_symmetry_space_group_name_H-M    'P1' 
_symmetry_Int_Tables_number       1 
_symmetry_cell_setting            triclinic 
loop_ 
_symmetry_equiv_pos_as_xyz 
  x,y,z 
_cell_length_a                    26.649079593834408 
_cell_length_b                    26.164442888347853 
_cell_length_c                    26.458854124754943 
_cell_angle_alpha                 90.03904115534993 
_cell_angle_beta                  89.95455327581347 
_cell_angle_gamma                 90.39804337502457 
loop_ 
_atom_site_label 
_atom_site_type_symbol 
_atom_site_fract_x 
_atom_site_fract_y 
_atom_site_fract_z 
_atom_site_charge 
C1          C  0.32084054  0.04212008  0.58299771     0.03030
C2          C  0.36009868  0.07814390  0.58473958    -0.13120
C3          C  0.36531975  0.11117235  0.62616389     0.00530
C4          C  0.33141012  0.10725517  0.66653057    -0.11640
C5          C  0.28958045  0.07432953  0.66365791     0.03030
C6          C  0.28468237  0.04170298  0.62166846    -0.11060
H7          H  0.38728165  0.07966773  0.55428020     0.08620
H8          H  0.33638416  0.13145580  0.69941452     0.06150
H9          H  0.25273342  0.01603410  0.61891464     0.06000
O10         O  0.42105996  0.27223131  0.66644972    -0.71870
O11         O  0.52153415  0.16990818  0.66864902    -0.72090
O12         O  0.52229374  0.27259425  0.66771521    -0.71950
O13         O  0.42064927  0.16987248  0.66749866    -0.71960
O14         O  0.42317342  0.16753898  0.58547108    -0.71920
O15         O  0.52144695  0.27336298  0.58562713    -0.71940
O16         O  0.52330028  0.17026059  0.58659467    -0.71880
O17         O  0.42106098  0.27043847  0.58438627    -0.72070
V18         V  0.47143395  0.22117610  0.66599421     1.35240
V19         V  0.47228761  0.22042591  0.58712681     1.35170
C20         C  0.40367829  0.28855034  0.62504912     0.77360
C21         C  0.53928021  0.15234895  0.62789394     0.77420
C22         C  0.53872179  0.29097889  0.62666306     0.77290
C23         C  0.40490098  0.15090614  0.62644979     0.77250
C24         C  0.64713176  0.06887755  0.67017954     0.03030
C25         C  0.60555915  0.10172739  0.67187959    -0.13120
C26         C  0.57777761  0.11198826  0.62820220     0.00530
C27         C  0.58743818  0.08398136  0.58426432    -0.11640
C28         C  0.62329856  0.04487770  0.58390261     0.03030
C29         C  0.65387475  0.03828843  0.62678768    -0.11060
H30         H  0.59661550  0.12168928  0.70652952     0.08620
H31         H  0.56555228  0.09129294  0.55057725     0.06150
H32         H  0.68288102  0.00962693  0.62626225     0.06000
C33         C  0.29638338  0.37349760  0.66654876     0.03030
C34         C  0.33458513  0.33665795  0.66700954    -0.13120
C35         C  0.36438925  0.32812901  0.62426683     0.00530
C36         C  0.35710378  0.35819180  0.58113273    -0.11640
C37         C  0.32342726  0.39931670  0.58173968     0.03030
C38         C  0.29134941  0.40501278  0.62373091    -0.11060
H39         H  0.34015604  0.31339718  0.70038994     0.08620
H40         H  0.37922389  0.35086857  0.54759006     0.06150
H41         H  0.26266505  0.43402638  0.62316573     0.06000
C42         C  0.61509914  0.40616216  0.58499709     0.03030
C43         C  0.57898360  0.36683890  0.58594882    -0.13120
C44         C  0.57683754  0.33228141  0.62641523     0.00530
C45         C  0.61160137  0.33720132  0.66601844    -0.11640
C46         C  0.64891236  0.37548951  0.66460654     0.03030
C47         C  0.65025320  0.40998553  0.62420774    -0.11060
H48         H  0.55201299  0.36371253  0.55543365     0.08620
H49         H  0.61071917  0.31035065  0.69721049     0.06150
H50         H  0.67952229  0.43890971  0.62256654     0.06000
C51         C  0.32150531  0.90078629  0.41467366     0.03030
C52         C  0.28689610  0.90234608  0.37472413    -0.13120
C53         C  0.29219956  0.86983496  0.33273270     0.00530
C54         C  0.33326247  0.83643331  0.33097235    -0.11640
C55         C  0.36579328  0.83183287  0.37234997     0.03030
C56         C  0.35978903  0.86426443  0.41405452    -0.11060
H57         H  0.25588006  0.92882376  0.37655155     0.08620
H58         H  0.33880649  0.81258480  0.29799511     0.06150
H59         H  0.38578838  0.86217104  0.44546094     0.06000
O60         O  0.52090781  0.67135358  0.33051282    -0.71870
O61         O  0.42151023  0.77436153  0.33123652    -0.72090
O62         O  0.52252346  0.77368832  0.33103389    -0.71950
O63         O  0.42002818  0.67206448  0.33110936    -0.71960
O64         O  0.42007857  0.67218151  0.41320251    -0.71920
O65         O  0.52275409  0.77315794  0.41312848    -0.71940
O66         O  0.42245141  0.77510927  0.41332870    -0.71880
O67         O  0.52031738  0.67021393  0.41260962    -0.72070
V68         V  0.47124959  0.72287765  0.33257622     1.35240
V69         V  0.47141859  0.72267903  0.41147238     1.35170
C70         C  0.53731630  0.65296540  0.37137649     0.77360
C71         C  0.40507817  0.79238401  0.37232030     0.77420
C72         C  0.54000781  0.79083618  0.37216254     0.77290
C73         C  0.40266836  0.65472347  0.37222270     0.77250
C74         C  0.65028134  0.87367613  0.33218978     0.03030
C75         C  0.65387986  0.90710583  0.37374175    -0.13120
C76         C  0.62057186  0.90248356  0.41482707     0.00530
C77         C  0.58607310  0.86165580  0.41531769    -0.11640
C78         C  0.57932771  0.83079776  0.37255526     0.03030
C79         C  0.61032263  0.83834871  0.33041741    -0.11060
H80         H  0.68270752  0.93645035  0.37420810     0.08620
H81         H  0.56281910  0.85533949  0.44835383     0.06150
H82         H  0.60504322  0.81481371  0.29710747     0.06000
C83         C  0.29398608  0.57077112  0.33010233     0.03030
C84         C  0.28790451  0.53918157  0.37285415    -0.13120
C85         C  0.31937595  0.54503482  0.41529008     0.00530
C86         C  0.35555881  0.58441341  0.41520259    -0.11640
C87         C  0.36314779  0.61495524  0.37244940     0.03030
C88         C  0.33302487  0.60721277  0.32985810    -0.11060
H89         H  0.25893269  0.51009764  0.37306063     0.08620
H90         H  0.37904382  0.59027427  0.44814500     0.06150
H91         H  0.33914200  0.63073581  0.29667226     0.06000
C92         C  0.61830647  0.54257922  0.41305609     0.03030
C93         C  0.58063587  0.57974516  0.41217572    -0.13120
C94         C  0.57578282  0.61274512  0.37095919     0.00530
C95         C  0.60824991  0.60763255  0.32963446    -0.11640
C96         C  0.64764210  0.57209274  0.33038767     0.03030
C97         C  0.65294682  0.54019707  0.37292653    -0.11060
H98         H  0.55434060  0.58230815  0.44333721     0.08620
H99         H  0.60361003  0.63243161  0.29720154     0.06150
H100        H  0.68392117  0.51375015  0.37503933     0.06000
O101        O  0.02113570  0.77579159  0.08412459    -0.71870
O102        O  0.92277266  0.66975374  0.08457290    -0.72090
O103        O  0.92076980  0.77274541  0.08473371    -0.71950
O104        O  0.02290893  0.67227401  0.08382137    -0.71960
O105        O  0.02311507  0.67189066  0.16590795    -0.71920
O106        O  0.92145039  0.77307762  0.16680846    -0.71940
O107        O  0.92229623  0.67072625  0.16667179    -0.71880
O108        O  0.02240536  0.77461081  0.16618761    -0.72070
V109        V  0.97195259  0.72266498  0.08590091     1.35240
V110        V  0.97236123  0.72258802  0.16478009     1.35170
C111        C  0.03846124  0.79338728  0.12517035     0.77360
C112        C  0.90566578  0.65233193  0.12575123     0.77420
C113        C  0.90376924  0.79017259  0.12587440     0.77290
C114        C  0.03991410  0.65436706  0.12470206     0.77250
C115        C  0.12009308  0.90559303  0.08354062     0.03030
C116        C  0.15533450  0.90688151  0.12339621    -0.13120
C117        C  0.14981830  0.87450645  0.16572798     0.00530
C118        C  0.11005247  0.83891055  0.16634647    -0.11640
C119        C  0.07711790  0.83425583  0.12538635     0.03030
C120        C  0.08170665  0.86826543  0.08469982    -0.11060
H121        H  0.18708327  0.93279712  0.12136750     0.08620
H122        H  0.10543087  0.81365628  0.19850500     0.06150
H123        H  0.05463884  0.86615629  0.05422982     0.06000
C124        C  0.15146788  0.57452752  0.16378104     0.03030
C125        C  0.11074210  0.60835034  0.16588650    -0.13120
C126        C  0.07881166  0.61436730  0.12425794     0.00530
C127        C  0.08499248  0.58271579  0.08187705    -0.11640
C128        C  0.12375581  0.54659479  0.08029029     0.03030
C129        C  0.15719637  0.54319537  0.12110920    -0.11060
H130        H  0.10524447  0.63164474  0.19926580     0.08620
H131        H  0.05910237  0.58551119  0.05047481     0.06150
H132        H  0.18823468  0.51672634  0.11914231     0.06000
C133        C  0.79675508  0.87511995  0.16878416     0.03030
C134        C  0.83505294  0.83828303  0.16892565    -0.13120
C135        C  0.86458198  0.82986269  0.12595573     0.00530
C136        C  0.85685467  0.85982775  0.08293098    -0.11640
C137        C  0.82153456  0.89948439  0.08293969     0.03030
C138        C  0.79098289  0.90628251  0.12582561    -0.11060
H139        H  0.84100756  0.81504424  0.20224702     0.08620
H140        H  0.87959181  0.85326001  0.04962725     0.06150
H141        H  0.76271207  0.93566322  0.12571521     0.06000
C142        C  0.82139637  0.54293502  0.08391801     0.03030
C143        C  0.78570931  0.54294862  0.12299414    -0.13120
C144        C  0.79131807  0.57565269  0.16481721     0.00530
C145        C  0.83303537  0.60867137  0.16691862    -0.11640
C146        C  0.86631371  0.61242876  0.12605839     0.03030
C147        C  0.86072126  0.57901792  0.08498415    -0.11060
H148        H  0.75354169  0.51751912  0.12073511     0.08620
H149        H  0.83845335  0.63299795  0.19964033     0.06150
H150        H  0.88761909  0.58041233  0.05426804     0.06000
O151        O  0.92015000  0.27724194  0.83067982    -0.71870
O152        O  0.01980996  0.17425260  0.83089104    -0.72090
O153        O  0.91887696  0.17470950  0.83146813    -0.71950
O154        O  0.02098585  0.27684880  0.83025435    -0.71960
O155        O  0.02080299  0.27790030  0.91233797    -0.71920
O156        O  0.91974234  0.17482823  0.91354457    -0.71940
O157        O  0.02013244  0.17447192  0.91296799    -0.71880
O158        O  0.92052756  0.27802966  0.91274680    -0.72070
V159        V  0.96996703  0.22576761  0.83244410     1.35240
V160        V  0.97030772  0.22630889  0.91131497     1.35170
C161        C  0.90349403  0.29542511  0.87162066     0.77360
C162        C  0.03675967  0.15649309  0.87186089     0.77420
C163        C  0.90220935  0.15701497  0.87272266     0.77290
C164        C  0.03795342  0.29515510  0.87111354     0.77250
C165        C  0.15142253  0.37345945  0.83126183     0.03030
C166        C  0.15732284  0.40560614  0.87343474    -0.13120
C167        C  0.12342663  0.40312157  0.91401654     0.00530
C168        C  0.08395910  0.36730987  0.91275363    -0.11640
C169        C  0.07741396  0.33508874  0.87084505     0.03030
C170        C  0.10987188  0.34006253  0.82936128    -0.11060
H171        H  0.18889414  0.43186263  0.87531307     0.08620
H172        H  0.05791312  0.36509102  0.94414828     0.06150
H173        H  0.10413525  0.31621254  0.79634747     0.06000
C174        C  0.11764034  0.04482212  0.91226381     0.03030
C175        C  0.15054444  0.04120301  0.87090867    -0.13120
C176        C  0.14485998  0.07325621  0.82860594     0.00530
C177        C  0.10628335  0.10976863  0.82903720    -0.11640
C178        C  0.07522318  0.11596142  0.87141728     0.03030
C179        C  0.08106092  0.08320902  0.91292348    -0.11060
H180        H  0.18065114  0.01367532  0.87206875     0.08620
H181        H  0.10113096  0.13440040  0.79657010     0.06150
H182        H  0.05628262  0.08658210  0.94524345     0.06000
C183        C  0.79593243  0.06900846  0.83151850     0.03030
C184        C  0.79249797  0.03633070  0.87346512    -0.13120
C185        C  0.82501220  0.04248626  0.91487947     0.00530
C186        C  0.85857566  0.08415175  0.91550945    -0.11640
C187        C  0.86383689  0.11595858  0.87321350     0.03030
C188        C  0.83289935  0.10768729  0.83113287    -0.11060
H189        H  0.76447007  0.00619754  0.87390286     0.08620
H190        H  0.88192326  0.09070046  0.94841496     0.06150
H191        H  0.83646037  0.13247449  0.79848592     0.06000
C192        C  0.81849875  0.40234032  0.91469914     0.03030
C193        C  0.85666962  0.36581631  0.91415948    -0.13120
C194        C  0.86450563  0.33538128  0.87138655     0.00530
C195        C  0.83474172  0.34307309  0.82834290    -0.11640
C196        C  0.79361001  0.37684499  0.82911329     0.03030
C197        C  0.78519426  0.40532647  0.87363539    -0.11060
H198        H  0.88130921  0.36231362  0.94652397     0.08620
H199        H  0.84333976  0.32162024  0.79450909     0.06150
H200        H  0.75308199  0.43008770  0.87686255     0.06000
C201        C  0.81755795  0.50610821  0.04128356    -0.06220
C202        C  0.82175577  0.52493871  0.99180828    -0.17350
C203        C  0.82249623  0.49207445  0.95020607     0.10980
C204        C  0.81558177  0.43894598  0.95737235    -0.06140
C205        C  0.81009590  0.42004288  0.00670240    -0.17380
C206        C  0.81224701  0.45269586  0.04865118     0.11010
S207        S  0.83663645  0.52030966  0.88974015    -0.32350
S208        S  0.81169702  0.42321178  0.11025125    -0.32350
H209        H  0.84670585  0.45720733  0.13191357     0.29020
H210        H  0.86552175  0.47936958  0.87171905     0.29010
H211        H  0.82642408  0.56564474  0.98557291     0.19610
H212        H  0.80613280  0.37922162  0.01266147     0.19610
C213        C  0.82427223  0.00517464  0.95725373    -0.06220
C214        C  0.77796986  0.98920601  0.97758707    -0.17350
C215        C  0.77535455  0.95333404  0.01684173     0.10980
C216        C  0.82021246  0.93554192  0.03931667    -0.06140
C217        C  0.86638521  0.95235842  0.01932509    -0.17380
C218        C  0.86892543  0.98457642  0.97746042     0.11010
S219        S  0.71380961  0.92972625  0.03356883    -0.32350
S220        S  0.93028431  0.99453420  0.94991423    -0.32350
H221        H  0.91323445  0.99536540  0.89960957     0.29020
H222        H  0.72960574  0.87979340  0.04464356     0.29010
H223        H  0.74335685  0.00388569  0.96199953     0.19610
H224        H  0.90126330  0.93917807  0.03563795     0.19610
C225        C  0.12837934  0.43905324  0.95709736    -0.06220
C226        C  0.12892324  0.49173739  0.94702895    -0.17350
C227        C  0.12977358  0.52769096  0.98620274     0.10980
C228        C  0.12827434  0.51086592  0.03697305    -0.06140
C229        C  0.12934480  0.45816725  0.04698621    -0.17380
C230        C  0.13032261  0.42226308  0.00781946     0.11010
S231        S  0.13402355  0.59420133  0.96873855    -0.32350
S232        S  0.13515333  0.35582225  0.02518074    -0.32350
H233        H  0.16223655  0.34091786  0.98203257     0.29020
H234        H  0.16159654  0.60959856  0.01148993     0.29010
H235        H  0.12829813  0.50501756  0.90824139     0.19610
H236        H  0.12905066  0.44479628  0.08574907     0.19610
C237        C  0.12298837  0.94199616  0.03987418    -0.06220
C238        C  0.11481836  0.92292396  0.99072503    -0.17350
C239        C  0.11191886  0.95547934  0.94884482     0.10980
C240        C  0.12089444  0.00836568  0.95497445    -0.06140
C241        C  0.13071010  0.02746538  0.00342235    -0.17380
C242        C  0.13037101  0.99546335  0.04580839     0.11010
S243        S  0.09319506  0.92753183  0.88941497    -0.32350
S244        S  0.13462571  0.02669660  0.10614504    -0.32350
H245        H  0.09720556  0.99612677  0.12865732     0.29020
H246        H  0.06539685  0.96974526  0.87263340     0.29010
H247        H  0.10879647  0.88234153  0.98497269     0.19610
H248        H  0.13653720  0.06819701  0.00853441     0.19610
C249        C  0.68434630  0.57126442  0.28772600    -0.06220
C250        C  0.70173268  0.61826337  0.26854510    -0.17390
C251        C  0.73394466  0.62079444  0.22696442     0.10980
C252        C  0.75365699  0.57527576  0.20631348    -0.06140
C253        C  0.73699322  0.52820328  0.22576562    -0.17380
C254        C  0.70130089  0.52569769  0.26455205     0.11010
S255        S  0.74500068  0.68311426  0.19987877    -0.32350
S256        S  0.67627871  0.46345362  0.27924939    -0.32350
H257        H  0.62694189  0.48079783  0.28640140     0.29020
H258        H  0.74663025  0.66595464  0.14951067     0.29010
H259        H  0.68880199  0.65367450  0.28508828     0.19610
H260        H  0.75091655  0.49289552  0.20970591     0.19610
C261        C  0.18902830  0.57338567  0.20532534    -0.06220
C262        C  0.20503736  0.52618925  0.22474575    -0.17350
C263        C  0.24062169  0.52363229  0.26374697     0.10980
C264        C  0.25810881  0.56930406  0.28678847    -0.06140
C265        C  0.24159180  0.61626275  0.26730467    -0.17380
C266        C  0.20972539  0.61877986  0.22564577     0.11010
S267        S  0.26435769  0.46127175  0.27941878    -0.32350
S268        S  0.20038909  0.68096084  0.19790224    -0.32350
H269        H  0.19934963  0.66341386  0.14763685     0.29020
H270        H  0.31337617  0.47824607  0.29029214     0.29010
H271        H  0.19060067  0.49097836  0.20865480     0.19610
H272        H  0.25486357  0.65168216  0.28373394     0.19610
C273        C  0.68894687  0.87430986  0.29145760    -0.06220
C274        C  0.70604461  0.92118959  0.27165923    -0.17350
C275        C  0.74293517  0.92320006  0.23378643     0.10980
C276        C  0.76065747  0.87720161  0.21196929    -0.06140
C277        C  0.74313274  0.83057503  0.23178109    -0.17380
C278        C  0.70996061  0.82862178  0.27248753     0.11010
S279        S  0.76791862  0.98539847  0.21805821    -0.32350
S280        S  0.69942933  0.76667679  0.30067947    -0.32350
H281        H  0.69767648  0.78488830  0.35068664     0.29020
H282        H  0.81681174  0.96822109  0.20795069     0.29010
H283        H  0.69140771  0.95669749  0.28654872     0.19610
H284        H  0.75645120  0.79485700  0.21623504     0.19610
C285        C  0.18646137  0.87504101  0.20857186    -0.06220
C286        C  0.20339365  0.82796107  0.22742694    -0.17350
C287        C  0.23496175  0.82522369  0.26949700     0.10980
C288        C  0.25491712  0.87059954  0.29079429    -0.06140
C289        C  0.23858290  0.91774688  0.27178888    -0.17380
C290        C  0.20312960  0.92037149  0.23280646     0.11010
S291        S  0.24453840  0.76286039  0.29668200    -0.32350
S292        S  0.17751019  0.98229281  0.21971840    -0.32350
H293        H  0.12841481  0.96394880  0.21170847     0.29020
H294        H  0.24520712  0.77991950  0.34711496     0.29010
H295        H  0.19037681  0.79271113  0.21043242     0.19610
H296        H  0.25236773  0.95295777  0.28845755     0.19610
C297        C  0.68841659  0.37741299  0.70381384    -0.06220
C298        C  0.69590420  0.42209501  0.73201462    -0.17350
C299        C  0.73256456  0.42453293  0.76994792     0.10980
C300        C  0.75855437  0.37948730  0.78453305    -0.06140
C301        C  0.75096843  0.33515114  0.75494934    -0.17380
C302        C  0.71956935  0.33530901  0.71276397     0.11010
S303        S  0.74787205  0.48738217  0.79306483    -0.32350
S304        S  0.72496843  0.28339907  0.66840759    -0.32350
H305        H  0.71357257  0.31213283  0.62506166     0.29020
H306        H  0.79969905  0.47767346  0.79416446     0.29010
H307        H  0.67444909  0.45594706  0.72298952     0.19610
H308        H  0.77043801  0.30005280  0.76340258     0.19610
C309        C  0.62062474  0.50683302  0.45651642    -0.06220
C310        C  0.61923427  0.52719830  0.50567575    -0.17350
C311        C  0.61608923  0.49551505  0.54809753     0.10980
C312        C  0.61716329  0.44191128  0.54177197    -0.06140
C313        C  0.61981347  0.42151421  0.49283873    -0.17380
C314        C  0.62010676  0.45312007  0.45033187     0.11010
S315        S  0.60760763  0.52589333  0.60870840    -0.32350
S316        S  0.61574716  0.42210214  0.38976503    -0.32350
H317        H  0.58272697  0.45805742  0.36887562     0.29020
H318        H  0.57607070  0.48764567  0.62880533     0.29010
H319        H  0.61874755  0.56827579  0.51099539     0.19610
H320        H  0.62013108  0.38040861  0.48763650     0.19610
C321        C  0.18955672  0.37346173  0.79007668    -0.06220
C322        C  0.20723568  0.42019760  0.77046633    -0.17350
C323        C  0.24354368  0.42188639  0.73203163     0.10980
C324        C  0.26022915  0.37576417  0.70967211    -0.06140
C325        C  0.24213613  0.32925683  0.72932542    -0.17380
C326        C  0.20931949  0.32755500  0.77038384     0.11010
S327        S  0.26916341  0.48379716  0.71621334    -0.32350
S328        S  0.19752715  0.26563358  0.79808586    -0.32350
H329        H  0.19609253  0.28337906  0.84826715     0.29020
H330        H  0.31784581  0.46606532  0.70602280     0.29010
H331        H  0.19349872  0.45581651  0.78598993     0.19610
H332        H  0.25478849  0.29346453  0.71338756     0.19610
C333        C  0.32250588  0.43661629  0.53898254    -0.06220
C334        C  0.27616759  0.45425060  0.52059735    -0.17350
C335        C  0.27359406  0.49102420  0.48212331     0.10980
C336        C  0.31823213  0.50815174  0.45832874    -0.06140
C337        C  0.36440440  0.48993937  0.47630948    -0.17380
C338        C  0.36729126  0.45651463  0.51743530     0.11010
S339        S  0.21259123  0.51682050  0.46809220    -0.32350
S340        S  0.42855700  0.44378242  0.54424966    -0.32350
H341        H  0.45754057  0.47055867  0.50840897     0.29020
H342        H  0.23011189  0.56642033  0.45708673     0.29010
H343        H  0.24153309  0.44028830  0.53717022     0.19610
H344        H  0.39877889  0.50291159  0.45855560     0.19610
C345        C  0.68458592  0.06852918  0.71240020    -0.06220
C346        C  0.70661100  0.02219739  0.72759532    -0.17350
C347        C  0.74413038  0.02087960  0.76485687     0.10980
C348        C  0.75831401  0.06651168  0.79003950    -0.06140
C349        C  0.73545189  0.11229203  0.77583374    -0.17380
C350        C  0.70061121  0.11418622  0.73671871     0.11010
S351        S  0.77407312  0.96037259  0.77617148    -0.32350
S352        S  0.68126411  0.17714497  0.71834962    -0.32350
H353        H  0.68503794  0.16732714  0.66617310     0.29020
H354        H  0.82158168  0.98122129  0.78732015     0.29010
H355        H  0.69534716  0.98669765  0.70971349     0.19610
H356        H  0.74578331  0.14760650  0.79473790     0.19610
C357        C  0.62504636  0.00929985  0.53983610    -0.06220
C358        C  0.57900425  0.99202020  0.52004863    -0.17350
C359        C  0.57657947  0.96020635  0.47786686     0.10980
C360        C  0.62134816  0.94018122  0.45709527    -0.06140
C361        C  0.66759497  0.95679829  0.47713779    -0.17380
C362        C  0.66996970  0.99248390  0.51670379     0.11010
S363        S  0.51506271  0.95019081  0.45075051    -0.32350
S364        S  0.73118071  0.01715119  0.53309544    -0.32350
H365        H  0.71450975  0.06656985  0.54517399     0.29020
H366        H  0.53183006  0.95002064  0.40031689     0.29010
H367        H  0.54406432  0.00460342  0.53677566     0.19610
H368        H  0.70232661  0.94268951  0.46125488     0.19610
C369        C  0.18071526  0.07164451  0.78516446    -0.06220
C370        C  0.19852777  0.11828562  0.76555003    -0.17350
C371        C  0.23122668  0.12017483  0.72432933     0.10980
C372        C  0.25091762  0.07434799  0.70433538    -0.06140
C373        C  0.23334796  0.02755034  0.72378784    -0.17380
C374        C  0.19729882  0.02568395  0.76239506     0.11010
S375        S  0.24324018  0.18220571  0.69698792    -0.32350
S376        S  0.17180636  0.96371292  0.77793920    -0.32350
H377        H  0.12289122  0.98149299  0.78680593     0.29020
H378        H  0.24558001  0.16466466  0.64677748     0.29010
H379        H  0.18590738  0.15397170  0.78173672     0.19610
H380        H  0.24710097  0.99199232  0.70812801     0.19610
C381        C  0.31807565  0.00523676  0.54043373    -0.06220
C382        C  0.32067120  0.02405667  0.49078621    -0.17350
C383        C  0.32196198  0.99101343  0.44924241     0.10980
C384        C  0.31855405  0.93766144  0.45701056    -0.06140
C385        C  0.31478880  0.91881533  0.50650295    -0.17380
C386        C  0.31544845  0.95175296  0.54817761     0.11010
S387        S  0.33084265  0.01930232  0.38769445    -0.32350
S388        S  0.31593445  0.92275144  0.60999843    -0.32350
H389        H  0.34942282  0.95835258  0.63156541     0.29020
H390        H  0.36183454  0.98041555  0.36876944     0.29010
H391        H  0.32314185  0.06491663  0.48437648     0.19610
H392        H  0.31281318  0.87790488  0.51277429     0.19610
loop_ 
_geom_bond_atom_site_label_1 
_geom_bond_atom_site_label_2 
_geom_bond_distance 
_geom_bond_site_symmetry_2 
_ccdc_geom_bond_type 
C1            C2   1.404       .  A
C1            C6   1.405       .  A
C1          C381   1.484       .  S
C2            C3   1.402       .  A
C2            H7   1.084       .  S
C3            C4   1.402       .  A
C3           C23   1.476       .  S
C4            C5   1.406       .  A
C4            H8   1.083       .  S
C5            C6   1.406       .  A
C5          C372   1.489       .  S
C6            H9   1.083       .  S
O10          V18   1.900       .  S
O10          C20   1.265       .  A
O11          V18   1.901       .  S
O11          C21   1.265       .  A
O12          V18   1.904       .  S
O12          C22   1.265       .  A
O13          V18   1.900       .  S
O13          C23   1.265       .  A
O14          V19   1.899       .  S
O14          C23   1.265       .  A
O15          V19   1.900       .  S
O15          C22   1.265       .  A
O16          V19   1.896       .  S
O16          C21   1.265       .  A
O17          V19   1.899       .  S
O17          C20   1.264       .  A
V18          V19   2.087       .  T
C20          C35   1.478       .  S
C21          C26   1.477       .  S
C22          C44   1.478       .  S
C24          C25   1.408       .  A
C24          C29   1.411       .  A
C24         C345   1.499       .  S
C25          C26   1.400       .  A
C25          H30   1.082       .  S
C26          C27   1.398       .  A
C27          C28   1.405       .  A
C27          H31   1.083       .  S
C28          C29   1.409       .  A
C28         C357   1.492       .  S
C29          H32   1.081       .  S
C33          C34   1.407       .  A
C33          C38   1.409       .  A
C33         C324   1.494       .  S
C34          C35   1.400       .  A
C34          H39   1.084       .  S
C35          C36   1.401       .  A
C36          C37   1.406       .  A
C36          H40   1.083       .  S
C37          C38   1.410       .  A
C37         C333   1.495       .  S
C38          H41   1.081       .  S
C42          C43   1.404       .  A
C42          C47   1.401       .  A
C42         C312   1.479       .  S
C43          C44   1.403       .  A
C43          H48   1.084       .  S
C44          C45   1.404       .  A
C45          C46   1.407       .  A
C45          H49   1.084       .  S
C46          C47   1.400       .  A
C46         C297   1.479       .  S
C47          H50   1.084       .  S
C51          C52   1.404       .  A
C51          C56   1.403       .  A
C51         C384   1.480       .  S
C52          C53   1.406       .  A
C52          H57   1.083       .  S
C53          C54   1.406       .  A
C53         C288   1.490       .  S
C54          C55   1.403       .  A
C54          H58   1.083       .  S
C55          C56   1.401       .  A
C55          C71   1.475       .  S
C56          H59   1.084       .  S
O60          V68   1.896       .  S
O60          C70   1.263       .  A
O61          V68   1.897       .  S
O61          C71   1.264       .  A
O62          V68   1.900       .  S
O62          C72   1.265       .  A
O63          V68   1.899       .  S
O63          C73   1.265       .  A
O64          V69   1.896       .  S
O64          C73   1.264       .  A
O65          V69   1.895       .  S
O65          C72   1.264       .  A
O66          V69   1.900       .  S
O66          C71   1.265       .  A
O67          V69   1.900       .  S
O67          C70   1.265       .  A
V68          V69   2.088       .  T
C70          C94   1.474       .  S
C72          C78   1.475       .  S
C73          C87   1.475       .  S
C74          C75   1.407       .  A
C74          C79   1.406       .  A
C74         C273   1.490       .  S
C75          C76   1.408       .  A
C75          H80   1.082       .  S
C76          C77   1.405       .  A
C76         C360   1.491       .  S
C77          C78   1.401       .  A
C77          H81   1.083       .  S
C78          C79   1.400       .  A
C79          H82   1.084       .  S
C83          C84   1.410       .  A
C83          C88   1.406       .  A
C83         C264   1.493       .  S
C84          C85   1.410       .  A
C84          H89   1.080       .  S
C85          C86   1.406       .  A
C85         C336   1.493       .  S
C86          C87   1.399       .  A
C86          H90   1.084       .  S
C87          C88   1.398       .  A
C88          H91   1.084       .  S
C92          C93   1.403       .  A
C92          C97   1.408       .  A
C92         C309   1.484       .  S
C93          C94   1.398       .  A
C93          H98   1.084       .  S
C94          C95   1.401       .  A
C95          C96   1.407       .  A
C95          H99   1.084       .  S
C96          C97   1.409       .  A
C96         C249   1.493       .  S
C97         H100   1.082       .  S
O101        V109   1.904   1_455  S
O101        C111   1.266       .  A
O102        V109   1.900       .  S
O102        C112   1.265       .  A
O103        V109   1.898       .  S
O103        C113   1.265       .  A
O104        V109   1.900   1_455  S
O104        C114   1.265       .  A
O105        V110   1.901   1_455  S
O105        C114   1.265       .  A
O106        V110   1.901       .  S
O106        C113   1.265       .  A
O107        V110   1.897       .  S
O107        C112   1.264       .  A
O108        V110   1.899   1_455  S
O108        C111   1.265       .  A
V109        V110   2.087       .  T
C111        C119   1.480       .  S
C112        C146   1.475       .  S
C113        C135   1.478       .  S
C114        C126   1.478       .  S
C115        C116   1.413       .  A
C115        C120   1.410       .  A
C115        C237   1.499       .  S
C116        C117   1.412       .  A
C116        H121   1.082       .  S
C117        C118   1.406       .  A
C117        C285   1.497       .  S
C118        C119   1.400       .  A
C118        H122   1.084       .  S
C119        C120   1.402       .  A
C120        H123   1.083       .  S
C124        C125   1.406       .  A
C124        C129   1.404       .  A
C124        C261   1.488       .  S
C125        C126   1.402       .  A
C125        H130   1.083       .  S
C126        C127   1.404       .  A
C127        C128   1.406       .  A
C127        H131   1.083       .  S
C128        C129   1.404       .  A
C128        C228   1.484       .  S
C129        H132   1.084       .  S
C133        C134   1.409       .  A
C133        C138   1.408       .  A
C133        C276   1.494       .  S
C134        C135   1.400       .  A
C134        H139   1.084       .  S
C135        C136   1.399       .  A
C136        C137   1.406       .  A
C136        H140   1.083       .  S
C137        C138   1.408       .  A
C137        C216   1.492       .  S
C138        H141   1.080       .  S
C142        C143   1.404       .  A
C142        C147   1.406       .  A
C142        C201   1.486       .  S
C143        C144   1.406       .  A
C143        H148   1.083       .  S
C144        C145   1.404       .  A
C144        C252   1.487       .  S
C145        C146   1.401       .  A
C145        H149   1.083       .  S
C146        C147   1.402       .  A
C147        H150   1.084       .  S
O151        V159   1.898       .  S
O151        C161   1.264       .  A
O152        V159   1.899   1_455  S
O152        C162   1.265       .  A
O153        V159   1.901       .  S
O153        C163   1.265       .  A
O154        V159   1.901   1_455  S
O154        C164   1.265       .  A
O155        V160   1.900   1_455  S
O155        C164   1.265       .  A
O156        V160   1.900       .  S
O156        C163   1.265       .  A
O157        V160   1.905   1_455  S
O157        C162   1.266       .  A
O158        V160   1.902       .  S
O158        C161   1.266       .  A
V159        V160   2.087       .  T
C161        C194   1.479       .  S
C162        C178   1.480       .  S
C163        C187   1.478       .  S
C164        C169   1.477       .  S
C165        C166   1.405       .  A
C165        C170   1.407       .  A
C165        C321   1.489       .  S
C166        C167   1.404       .  A
C166        H171   1.084       .  S
C167        C168   1.404       .  A
C167        C225   1.482       .  S
C168        C169   1.403       .  A
C168        H172   1.083       .  S
C169        C170   1.402       .  A
C170        H173   1.083       .  S
C174        C175   1.405       .  A
C174        C179   1.405       .  A
C174        C240   1.482       .  S
C175        C176   1.408       .  A
C175        H180   1.082       .  S
C176        C177   1.408       .  A
C176        C369   1.495       .  S
C177        C178   1.403       .  A
C177        H181   1.084       .  S
C178        C179   1.403       .  A
C179        H182   1.084       .  S
C183        C184   1.404       .  A
C183        C188   1.407       .  A
C183        C348   1.488       .  S
C184        C185   1.406       .  A
C184        H189   1.082       .  S
C185        C186   1.405       .  A
C185        C213   1.487       .  S
C186        C187   1.401       .  A
C186        H190   1.083       .  S
C187        C188   1.402       .  A
C188        H191   1.084       .  S
C192        C193   1.401       .  A
C192        C197   1.406       .  A
C192        C204   1.482       .  S
C193        C194   1.400       .  A
C193        H198   1.084       .  S
C194        C195   1.404       .  A
C195        C196   1.413       .  A
C195        H199   1.082       .  S
C196        C197   1.412       .  A
C196        C300   1.507       .  S
C197        H200   1.080       .  S
C201        C202   1.403   1_554  A
C201        C206   1.417       .  A
C202        C203   1.397       .  A
C202        H211   1.084       .  S
C203        C204   1.414       .  A
C203        S207   1.801       .  S
C204        C205   1.403   1_556  A
C205        C206   1.401       .  A
C205        H212   1.084       .  S
C206        S208   1.804       .  S
S207        H210   1.406       .  S
S208        H209   1.407       .  S
C213        C214   1.407   1_545  A
C213        C218   1.415   1_545  A
C214        C215   1.402   1_556  A
C214        H223   1.084   1_565  S
C215        C216   1.417       .  A
C215        S219   1.803       .  S
C216        C217   1.407       .  A
C217        C218   1.394   1_554  A
C217        H224   1.084       .  S
C218        S220   1.807       .  S
S219        H222   1.407       .  S
S220        H221   1.407       .  S
C225        C226   1.404       .  A
C225        C230   1.414   1_556  A
C226        C227   1.399       .  A
C226        H235   1.084       .  S
C227        C228   1.414   1_556  A
C227        S231   1.804       .  S
C228        C229   1.405       .  A
C229        C230   1.399       .  A
C229        H236   1.084       .  S
C230        S232   1.804       .  S
S231        H234   1.407   1_556  S
S232        H233   1.407   1_554  S
C237        C238   1.409   1_554  A
C237        C242   1.420       .  A
C238        C239   1.401       .  A
C238        H247   1.083       .  S
C239        C240   1.412   1_565  A
C239        S243   1.803       .  S
C240        C241   1.400   1_556  A
C241        C242   1.400   1_545  A
C241        H248   1.084       .  S
C242        S244   1.796   1_565  S
S243        H246   1.407       .  S
S244        H245   1.406   1_545  S
C249        C250   1.406       .  A
C249        C254   1.417       .  A
C250        C251   1.396       .  A
C250        H259   1.083       .  S
C251        C252   1.414       .  A
C251        S255   1.804       .  S
C252        C253   1.404       .  A
C253        C254   1.400       .  A
C253        H260   1.084       .  S
C254        S256   1.798       .  S
S255        H258   1.407       .  S
S256        H257   1.406       .  S
C261        C262   1.407       .  A
C261        C266   1.412       .  A
C262        C263   1.404       .  A
C262        H271   1.083       .  S
C263        C264   1.417       .  A
C263        S267   1.803       .  S
C264        C265   1.406       .  A
C265        C266   1.394       .  A
C265        H272   1.081       .  S
C266        S268   1.804       .  S
S267        H270   1.407       .  S
S268        H269   1.407       .  S
C273        C274   1.407       .  A
C273        C278   1.415       .  A
C274        C275   1.404       .  A
C274        H283   1.084       .  S
C275        C276   1.418       .  A
C275        S279   1.803       .  S
C276        C277   1.405       .  A
C277        C278   1.394       .  A
C277        H284   1.083       .  S
C278        S280   1.805       .  S
S279        H282   1.407       .  S
S280        H281   1.407       .  S
C285        C286   1.407       .  A
C285        C290   1.417       .  A
C286        C287   1.398       .  A
C286        H295   1.081       .  S
C287        C288   1.414       .  A
C287        S291   1.804       .  S
C288        C289   1.405       .  A
C289        C290   1.401       .  A
C289        H296   1.083       .  S
C290        S292   1.796       .  S
S291        H294   1.407       .  S
S292        H293   1.407       .  S
C297        C298   1.400       .  A
C297        C302   1.404       .  A
C298        C299   1.402       .  A
C298        H307   1.084       .  S
C299        C300   1.425       .  A
C299        S303   1.798       .  S
C300        C301   1.412       .  A
C301        C302   1.396       .  A
C301        H308   1.081       .  S
C302        S304   1.801       .  S
S303        H306   1.406       .  S
S304        H305   1.406       .  S
C309        C310   1.406       .  A
C309        C314   1.415       .  A
C310        C311   1.398       .  A
C310        H319   1.084       .  S
C311        C312   1.413       .  A
C311        S315   1.804       .  S
C312        C313   1.402       .  A
C313        C314   1.396       .  A
C313        H320   1.084       .  S
C314        S316   1.799       .  S
S315        H318   1.407       .  S
S316        H317   1.406       .  S
C321        C322   1.407       .  A
C321        C326   1.414       .  A
C322        C323   1.404       .  A
C322        H331   1.084       .  S
C323        C324   1.418       .  A
C323        S327   1.803       .  S
C324        C325   1.406       .  A
C325        C326   1.395       .  A
C325        H332   1.083       .  S
C326        S328   1.804       .  S
S327        H330   1.407       .  S
S328        H329   1.407       .  S
C333        C334   1.408       .  A
C333        C338   1.418       .  A
C334        C335   1.403       .  A
C334        H343   1.083       .  S
C335        C336   1.416       .  A
C335        S339   1.804       .  S
C336        C337   1.406       .  A
C337        C338   1.399       .  A
C337        H344   1.082       .  S
C338        S340   1.814       .  S
S339        H342   1.407       .  S
S340        H341   1.407       .  S
C345        C346   1.409       .  A
C345        C350   1.420       .  A
C346        C347   1.405       .  A
C346        H355   1.083   1_545  S
C347        C348   1.416       .  A
C347        S351   1.803   1_545  S
C348        C349   1.399       .  A
C349        C350   1.392       .  A
C349        H356   1.084       .  S
C350        S352   1.797       .  S
S351        H354   1.407       .  S
S352        H353   1.408       .  S
C357        C358   1.406   1_545  A
C357        C362   1.417   1_545  A
C358        C359   1.393       .  A
C358        H367   1.084   1_565  S
C359        C360   1.417       .  A
C359        S363   1.807       .  S
C360        C361   1.408       .  A
C361        C362   1.403       .  A
C361        H368   1.083       .  S
C362        S364   1.803   1_565  S
S363        H366   1.407       .  S
S364        H365   1.407       .  S
C369        C370   1.406       .  A
C369        C374   1.418       .  A
C370        C371   1.396       .  A
C370        H379   1.083       .  S
C371        C372   1.414       .  A
C371        S375   1.804       .  S
C372        C373   1.406       .  A
C373        C374   1.402       .  A
C373        H380   1.084   1_545  S
C374        S376   1.801   1_545  S
S375        H378   1.407       .  S
S376        H377   1.407       .  S
C381        C382   1.405       .  A
C381        C386   1.416   1_545  A
C382        C383   1.399   1_545  A
C382        H391   1.084       .  S
C383        C384   1.413       .  A
C383        S387   1.804   1_565  S
C384        C385   1.403       .  A
C385        C386   1.399       .  A
C385        H392   1.084       .  S
C386        S388   1.804       .  S
S387        H390   1.407   1_545  S
S388        H389   1.407       .  S
