geometry optimzed in LAMMPS
_audit_creation_date              2020-11-30 
_audit_creation_method            'lammps2cif' 
_symmetry_space_group_name_H-M    'P1' 
_symmetry_Int_Tables_number       1 
_symmetry_cell_setting            triclinic 
loop_ 
_symmetry_equiv_pos_as_xyz 
  x,y,z 
_cell_length_a                    35.22603421996812 
_cell_length_b                    25.57694435411414 
_cell_length_c                    30.194671180465427 
_cell_angle_alpha                 89.92816370075235 
_cell_angle_beta                  89.87266730804761 
_cell_angle_gamma                 90.16975796638633 
loop_ 
_atom_site_label 
_atom_site_type_symbol 
_atom_site_fract_x 
_atom_site_fract_y 
_atom_site_fract_z 
_atom_site_charge 
C1          C  0.94844337  0.24925351  0.33256060     0.04000
C2          C  0.92848530  0.25063676  0.29256305    -0.12150
C3          C  0.88861039  0.25061459  0.29237478     0.01570
C4          C  0.86889337  0.25017235  0.99959284    -0.10670
C5          C  0.88870830  0.24941705  0.03998050     0.04000
C6          C  0.92859189  0.24866482  0.03943477    -0.10090
H7          H  0.94418529  0.25103889  0.26165854     0.09590
H8          H  0.83811204  0.25040489  0.99971696     0.07120
H9          H  0.94436883  0.24780885  0.07020108     0.06970
C10         C  0.11201442  0.25066002  0.33400106     0.04000
C11         C  0.13186196  0.25132771  0.29379087    -0.12150
C12         C  0.17174629  0.25061458  0.29323935     0.01500
C13         C  0.19156518  0.24983815  0.33362421    -0.10670
C14         C  0.17185143  0.24932383  0.04084368     0.04000
C15         C  0.13197697  0.24924501  0.04066030    -0.10090
H16         H  0.11608181  0.25220622  0.26302723     0.09590
H17         H  0.22234677  0.24964203  0.33349702     0.07120
H18         H  0.11627981  0.24878941  0.07156629     0.06970
O19         O  0.38446852  0.49904844  0.21401033    -0.56940
C20         C  0.36717497  0.00138548  0.08346958     0.75690
O21         O  0.27104909  0.44309124  0.16710791    -0.58100
C22         C  0.36718166  0.49951372  0.25076667     0.75660
C23         C  0.28945323  0.09989673  0.16744053     0.78050
Cd24       Cd  0.32756764  0.00044397  0.16718803     1.37460
O25         O  0.38446566  0.00183744  0.12013730    -0.56940
O26         O  0.32523912  0.09661567  0.16745929    -0.55750
C27         C  0.28943013  0.40067790  0.16668650     0.78010
O28         O  0.27107072  0.05733089  0.16743188    -0.58120
O29         O  0.33128544  0.00074046  0.08540913    -0.56570
O30         O  0.33129534  0.50038519  0.24899354    -0.56560
O31         O  0.32521129  0.40425792  0.16644794    -0.55730
O32         O  0.17515979  0.25080913  0.21392078    -0.56940
C33         C  0.19260594  0.24933624  0.08334416     0.75690
O34         O  0.28863262  0.30741329  0.16642714    -0.58100
C35         C  0.19245565  0.25052606  0.25058608     0.75660
C36         C  0.27025763  0.15058770  0.16734560     0.78050
Cd37       Cd  0.23213846  0.25004227  0.16689379     1.37470
O38         O  0.17531005  0.24902746  0.12009593    -0.56940
O39         O  0.23447265  0.15386765  0.16731496    -0.55750
C40         C  0.27024514  0.34982402  0.16658860     0.78010
O41         O  0.28863837  0.19315471  0.16721525    -0.58120
O42         O  0.22849724  0.24988802  0.08509577    -0.56570
O43         O  0.22834468  0.25001633  0.24863769    -0.56560
O44         O  0.23446321  0.34623777  0.16675721    -0.55730
O45         O  0.67597320  0.99808842  0.21312967    -0.56940
C46         C  0.69324975  0.50043201  0.08250115     0.75690
O47         O  0.78938745  0.05691102  0.16605776    -0.58100
C48         C  0.69326247  0.99856897  0.24979790     0.75660
C49         C  0.77099679  0.40010549  0.16584135     0.78050
Cd50       Cd  0.73287079  0.49955044  0.16607655     1.37470
O51         O  0.67596495  0.50096784  0.11925803    -0.56940
O52         O  0.73521103  0.40338136  0.16575150    -0.55750
C53         C  0.77100814  0.09932490  0.16652434     0.78010
O54         O  0.78937557  0.44267410  0.16592374    -0.58120
O55         O  0.72913545  0.49952113  0.08427329    -0.56570
O56         O  0.72915157  0.99927467  0.24785863    -0.56560
O57         O  0.73522695  0.09574426  0.16682806    -0.55730
O58         O  0.88529096  0.24926033  0.11929786    -0.56940
C59         C  0.86785625  0.25060622  0.24987303     0.75690
O60         O  0.77181570  0.30684828  0.16597292    -0.58100
C61         C  0.86799643  0.24953194  0.08263188     0.75660
C62         C  0.79019628  0.15017871  0.16661114     0.78050
Cd63       Cd  0.82831401  0.24996061  0.16632602     1.37470
O64         O  0.88515107  0.25086844  0.21312033    -0.56940
O65         O  0.82597820  0.15376193  0.16638584    -0.55750
C66         C  0.79019508  0.34941633  0.16592354     0.78010
O67         O  0.77181264  0.19259210  0.16682925    -0.58120
O68         O  0.83196455  0.25011588  0.24812224    -0.56570
O69         O  0.83210726  0.25003152  0.08457874    -0.56560
O70         O  0.82598009  0.34613818  0.16601503    -0.55730
C71         C  0.44790917  0.99838269  0.00031873     0.04000
C72         C  0.42779420  0.99801547  0.29360229    -0.12150
C73         C  0.38792036  0.99928147  0.29331066     0.01500
C74         C  0.36815946  0.00044129  0.00045234    -0.10670
C75         C  0.38791416  0.00111733  0.04083996     0.04000
C76         C  0.42778810  0.00092197  0.04039881    -0.10090
H77         H  0.44335941  0.99648809  0.26263895     0.09590
H78         H  0.33737925  0.00091007  0.00051959     0.07120
H79         H  0.44334232  0.00251687  0.07128322     0.06970
C80         C  0.61252266  0.50145650  0.99961262     0.04000
C81         C  0.63263551  0.50184617  0.03966382    -0.12150
C82         C  0.67251056  0.50062998  0.03995710     0.01500
C83         C  0.69227380  0.49949497  0.99948271    -0.10670
C84         C  0.67252147  0.49879909  0.29242729     0.04000
C85         C  0.63264739  0.49894092  0.29286690    -0.10090
H86         H  0.61706815  0.50335767  0.07062631     0.09590
H87         H  0.72305439  0.49906799  0.99941664     0.07120
H88         H  0.61709547  0.49733269  0.26198139     0.06970
C89         C  0.49006243  0.99766432  0.00004235    -0.05250
C90         C  0.50943563  0.03556404  0.30827198    -0.16380
C91         C  0.54910711  0.03859601  0.30825119     0.11950
C92         C  0.57036899  0.50215953  0.99988398    -0.05170
C93         C  0.55099608  0.46425782  0.02498695    -0.16410
C94         C  0.51132358  0.46122703  0.02500881     0.11980
S95         S  0.57056054  0.09135222  0.27726553    -0.31380
S96         S  0.48986732  0.40847744  0.05600016    -0.31380
H97         H  0.45932652  0.40075983  0.02678646     0.29990
H98         H  0.60109055  0.09908384  0.30649201     0.29980
H99         H  0.49344432  0.06409391  0.28947694     0.20580
H100        H  0.56698798  0.43572995  0.04378353     0.20580
C101        C  0.07017564  0.25134188  0.33428088    -0.05250
C102        C  0.05067972  0.20381942  0.00589570    -0.16380
C103        C  0.01098642  0.20185648  0.00465874     0.11950
C104        C  0.99028180  0.24855593  0.33229109    -0.05170
C105        C  0.00977893  0.29607806  0.32734798    -0.16410
C106        C  0.04947053  0.29804112  0.32860042     0.11980
S107        S  0.98855258  0.13871260  0.01056104    -0.31380
S108        S  0.07191105  0.36118694  0.32277171    -0.31380
H109        H  0.10429937  0.34997358  0.34808284     0.29990
H110        H  0.95606211  0.14992900  0.98543237     0.29980
H111        H  0.06654985  0.16793429  0.01011644     0.20580
H112        H  0.99391051  0.33196523  0.32313174     0.20580
C113        C  0.94844337  0.24925351  0.66589394     0.04000
C114        C  0.92848529  0.25063677  0.62589638    -0.12150
C115        C  0.88861039  0.25061459  0.62570811     0.01570
C116        C  0.86889337  0.25017236  0.33292617    -0.10670
C117        C  0.88870831  0.24941706  0.37331383     0.04000
C118        C  0.92859189  0.24866482  0.37276809    -0.10090
H119        H  0.94418529  0.25103890  0.59499187     0.09590
H120        H  0.83811203  0.25040490  0.33305030     0.07120
H121        H  0.94436883  0.24780885  0.40353441     0.06970
C122        C  0.11201442  0.25066001  0.66733439     0.04000
C123        C  0.13186196  0.25132771  0.62712421    -0.12150
C124        C  0.17174629  0.25061457  0.62657269     0.01500
C125        C  0.19156518  0.24983814  0.66695754    -0.10670
C126        C  0.17185143  0.24932384  0.37417702     0.04000
C127        C  0.13197697  0.24924501  0.37399363    -0.10090
H128        H  0.11608181  0.25220622  0.59636057     0.09590
H129        H  0.22234677  0.24964202  0.66683036     0.07120
H130        H  0.11627981  0.24878941  0.40489962     0.06970
O131        O  0.38446852  0.49904845  0.54734366    -0.56940
C132        C  0.36717496  0.00138548  0.41680291     0.75690
O133        O  0.27104909  0.44309125  0.50044125    -0.58100
C134        C  0.36718166  0.49951373  0.58410000     0.75660
C135        C  0.28945323  0.09989674  0.50077386     0.78050
Cd136      Cd  0.32756764  0.00044398  0.50052136     1.37460
O137        O  0.38446566  0.00183745  0.45347064    -0.56940
O138        O  0.32523912  0.09661568  0.50079263    -0.55750
C139        C  0.28943013  0.40067791  0.50001984     0.78010
O140        O  0.27107071  0.05733090  0.50076521    -0.58120
O141        O  0.33128544  0.00074046  0.41874247    -0.56570
O142        O  0.33129534  0.50038519  0.58232687    -0.56560
O143        O  0.32521128  0.40425793  0.49978127    -0.55730
O144        O  0.17515979  0.25080913  0.54725411    -0.56940
C145        C  0.19260593  0.24933625  0.41667749     0.75690
O146        O  0.28863262  0.30741330  0.49976047    -0.58100
C147        C  0.19245565  0.25052606  0.58391941     0.75660
C148        C  0.27025763  0.15058771  0.50067894     0.78050
Cd149      Cd  0.23213845  0.25004228  0.50022712     1.37470
O150        O  0.17531005  0.24902747  0.45342927    -0.56940
O151        O  0.23447264  0.15386766  0.50064829    -0.55750
C152        C  0.27024514  0.34982402  0.49992194     0.78010
O153        O  0.28863836  0.19315472  0.50054859    -0.58120
O154        O  0.22849724  0.24988803  0.41842910    -0.56570
O155        O  0.22834468  0.25001633  0.58197102    -0.56560
O156        O  0.23446320  0.34623778  0.50009055    -0.55730
O157        O  0.67597321  0.99808842  0.54646300    -0.56940
C158        C  0.69324975  0.50043201  0.41583448     0.75690
O159        O  0.78938746  0.05691102  0.49939108    -0.58100
C160        C  0.69326247  0.99856898  0.58313123     0.75660
C161        C  0.77099680  0.40010550  0.49917468     0.78050
Cd162      Cd  0.73287079  0.49955044  0.49940988     1.37470
O163        O  0.67596495  0.50096784  0.45259136    -0.56940
O164        O  0.73521104  0.40338136  0.49908482    -0.55750
C165        C  0.77100814  0.09932491  0.49985767     0.78010
O166        O  0.78937558  0.44267411  0.49925708    -0.58120
O167        O  0.72913546  0.49952114  0.41760662    -0.56570
O168        O  0.72915158  0.99927467  0.58119196    -0.56560
O169        O  0.73522695  0.09574426  0.50016140    -0.55730
O170        O  0.88529096  0.24926033  0.45263119    -0.56940
C171        C  0.86785625  0.25060622  0.58320637     0.75690
O172        O  0.77181570  0.30684828  0.49930624    -0.58100
C173        C  0.86799643  0.24953195  0.41596522     0.75660
C174        C  0.79019628  0.15017871  0.49994447     0.78050
Cd175      Cd  0.82831401  0.24996061  0.49965935     1.37470
O176        O  0.88515107  0.25086845  0.54645366    -0.56940
O177        O  0.82597821  0.15376193  0.49971916    -0.55750
C178        C  0.79019509  0.34941634  0.49925688     0.78010
O179        O  0.77181265  0.19259210  0.50016259    -0.58120
O180        O  0.83196455  0.25011587  0.58145557    -0.56570
O181        O  0.83210727  0.25003153  0.41791208    -0.56560
O182        O  0.82598009  0.34613819  0.49934837    -0.55730
C183        C  0.44790917  0.99838269  0.33365206     0.04000
C184        C  0.42779420  0.99801548  0.62693562    -0.12150
C185        C  0.38792036  0.99928148  0.62664400     0.01500
C186        C  0.36815946  0.00044129  0.33378567    -0.10670
C187        C  0.38791416  0.00111733  0.37417329     0.04000
C188        C  0.42778809  0.00092197  0.37373215    -0.10090
H189        H  0.44335941  0.99648811  0.59597228     0.09590
H190        H  0.33737924  0.00091007  0.33385292     0.07120
H191        H  0.44334231  0.00251688  0.40461656     0.06970
C192        C  0.61252266  0.50145650  0.33294596     0.04000
C193        C  0.63263551  0.50184618  0.37299715    -0.12150
C194        C  0.67251056  0.50062999  0.37329044     0.01500
C195        C  0.69227380  0.49949498  0.33281605    -0.10670
C196        C  0.67252147  0.49879909  0.62576062     0.04000
C197        C  0.63264739  0.49894093  0.62620023    -0.10090
H198        H  0.61706815  0.50335768  0.40395965     0.09590
H199        H  0.72305439  0.49906800  0.33274997     0.07120
H200        H  0.61709548  0.49733270  0.59531472     0.06970
C201        C  0.49006243  0.99766431  0.33337569    -0.05250
C202        C  0.50943564  0.03556405  0.64160531    -0.16380
C203        C  0.54910712  0.03859602  0.64158452     0.11950
C204        C  0.57036899  0.50215953  0.33321732    -0.05170
C205        C  0.55099608  0.46425783  0.35832029    -0.16410
C206        C  0.51132358  0.46122704  0.35834216     0.11980
S207        S  0.57056055  0.09135224  0.61059888    -0.31380
S208        S  0.48986732  0.40847746  0.38933352    -0.31380
H209        H  0.45932652  0.40075984  0.36011982     0.29990
H210        H  0.60109056  0.09908385  0.63982536     0.29980
H211        H  0.49344432  0.06409393  0.62281028     0.20580
H212        H  0.56698798  0.43572997  0.37711689     0.20580
C213        C  0.07017564  0.25134187  0.66761422    -0.05250
C214        C  0.05067972  0.20381943  0.33922908    -0.16380
C215        C  0.01098642  0.20185650  0.33799211     0.11950
C216        C  0.99028180  0.24855593  0.66562443    -0.05170
C217        C  0.00977893  0.29607805  0.66068126    -0.16410
C218        C  0.04947053  0.29804111  0.66193371     0.11980
S219        S  0.98855258  0.13871262  0.34389448    -0.31380
S220        S  0.07191106  0.36118692  0.65610494    -0.31380
H221        H  0.10429937  0.34997359  0.68141610     0.29990
H222        H  0.95606212  0.14992899  0.31876577     0.29980
H223        H  0.06654985  0.16793431  0.34344985     0.20580
H224        H  0.99391052  0.33196521  0.65646498     0.20580
C225        C  0.94844337  0.24925351  0.99922728     0.04000
C226        C  0.92848530  0.25063676  0.95922972    -0.12150
C227        C  0.88861039  0.25061459  0.95904144     0.01570
C228        C  0.86889337  0.25017235  0.66625951    -0.10670
C229        C  0.88870830  0.24941705  0.70664717     0.04000
C230        C  0.92859189  0.24866481  0.70610143    -0.10090
H231        H  0.94418529  0.25103888  0.92832521     0.09590
H232        H  0.83811203  0.25040488  0.66638363     0.07120
H233        H  0.94436883  0.24780884  0.73686775     0.06970
C234        C  0.11201442  0.25066001  0.00066773     0.04000
C235        C  0.13186196  0.25132770  0.96045754    -0.12150
C236        C  0.17174629  0.25061457  0.95990602     0.01500
C237        C  0.19156518  0.24983814  0.00029088    -0.10670
C238        C  0.17185143  0.24932383  0.70751035     0.04000
C239        C  0.13197697  0.24924500  0.70732697    -0.10090
H240        H  0.11608181  0.25220621  0.92969390     0.09590
H241        H  0.22234677  0.24964202  0.00016369     0.07120
H242        H  0.11627981  0.24878940  0.73823296     0.06970
O243        O  0.38446852  0.49904844  0.88067699    -0.56940
C244        C  0.36717497  0.00138548  0.75013624     0.75690
O245        O  0.27104909  0.44309124  0.83377458    -0.58100
C246        C  0.36718166  0.49951372  0.91743333     0.75660
C247        C  0.28945323  0.09989673  0.83410720     0.78050
Cd248      Cd  0.32756765  0.00044397  0.83385469     1.37460
O249        O  0.38446567  0.00183744  0.78680397    -0.56940
O250        O  0.32523912  0.09661567  0.83412595    -0.55750
C251        C  0.28943013  0.40067790  0.83335317     0.78010
O252        O  0.27107072  0.05733089  0.83409855    -0.58120
O253        O  0.33128544  0.00074046  0.75207580    -0.56570
O254        O  0.33129534  0.50038519  0.91566020    -0.56560
O255        O  0.32521129  0.40425792  0.83311460    -0.55730
O256        O  0.17515979  0.25080912  0.88058745    -0.56940
C257        C  0.19260594  0.24933624  0.75001083     0.75690
O258        O  0.28863262  0.30741329  0.83309381    -0.58100
C259        C  0.19245565  0.25052606  0.91725274     0.75660
C260        C  0.27025764  0.15058770  0.83401227     0.78050
Cd261      Cd  0.23213846  0.25004227  0.83356045     1.37470
O262        O  0.17531005  0.24902745  0.78676260    -0.56940
O263        O  0.23447265  0.15386765  0.83398162    -0.55750
C264        C  0.27024514  0.34982401  0.83325527     0.78010
O265        O  0.28863837  0.19315471  0.83388192    -0.58120
O266        O  0.22849724  0.24988802  0.75176244    -0.56570
O267        O  0.22834468  0.25001632  0.91530435    -0.56560
O268        O  0.23446321  0.34623777  0.83342388    -0.55730
O269        O  0.67597320  0.99808842  0.87979633    -0.56940
C270        C  0.69324975  0.50043200  0.74916781     0.75690
O271        O  0.78938746  0.05691101  0.83272443    -0.58100
C272        C  0.69326247  0.99856898  0.91646457     0.75660
C273        C  0.77099680  0.40010548  0.83250801     0.78050
Cd274      Cd  0.73287079  0.49955043  0.83274322     1.37470
O275        O  0.67596495  0.50096783  0.78592470    -0.56940
O276        O  0.73521104  0.40338135  0.83241817    -0.55750
C277        C  0.77100814  0.09932490  0.83319101     0.78010
O278        O  0.78937558  0.44267410  0.83259040    -0.58120
O279        O  0.72913545  0.49952113  0.75093996    -0.56570
O280        O  0.72915158  0.99927467  0.91452530    -0.56560
O281        O  0.73522695  0.09574425  0.83349472    -0.55730
O282        O  0.88529096  0.24926032  0.78596453    -0.56940
C283        C  0.86785626  0.25060622  0.91653970     0.75690
O284        O  0.77181570  0.30684827  0.83263959    -0.58100
C285        C  0.86799643  0.24953193  0.74929855     0.75660
C286        C  0.79019629  0.15017870  0.83327780     0.78050
Cd287      Cd  0.82831401  0.24996060  0.83299269     1.37470
O288        O  0.88515108  0.25086844  0.87978700    -0.56940
O289        O  0.82597821  0.15376192  0.83305251    -0.55750
C290        C  0.79019509  0.34941632  0.83259021     0.78010
O291        O  0.77181265  0.19259209  0.83349591    -0.58120
O292        O  0.83196455  0.25011587  0.91478891    -0.56570
O293        O  0.83210727  0.25003151  0.75124541    -0.56560
O294        O  0.82598009  0.34613818  0.83268169    -0.55730
C295        C  0.44790917  0.99838269  0.66698539     0.04000
C296        C  0.42779420  0.99801548  0.96026896    -0.12150
C297        C  0.38792036  0.99928147  0.95997733     0.01500
C298        C  0.36815946  0.00044130  0.66711900    -0.10670
C299        C  0.38791416  0.00111733  0.70750662     0.04000
C300        C  0.42778810  0.00092197  0.70706547    -0.10090
H301        H  0.44335941  0.99648811  0.92930561     0.09590
H302        H  0.33737925  0.00091007  0.66718626     0.07120
H303        H  0.44334232  0.00251687  0.73794989     0.06970
C304        C  0.61252266  0.50145650  0.66627929     0.04000
C305        C  0.63263551  0.50184617  0.70633048    -0.12150
C306        C  0.67251056  0.50062998  0.70662377     0.01500
C307        C  0.69227380  0.49949498  0.66614938    -0.10670
C308        C  0.67252147  0.49879908  0.95909395     0.04000
C309        C  0.63264739  0.49894092  0.95953357    -0.10090
H310        H  0.61706815  0.50335767  0.73729298     0.09590
H311        H  0.72305439  0.49906799  0.66608330     0.07120
H312        H  0.61709548  0.49733270  0.92864805     0.06970
C313        C  0.49006243  0.99766432  0.66670902    -0.05250
C314        C  0.50943564  0.03556405  0.97493865    -0.16380
C315        C  0.54910712  0.03859602  0.97491786     0.11950
C316        C  0.57036899  0.50215953  0.66655065    -0.05170
C317        C  0.55099608  0.46425782  0.69165361    -0.16410
C318        C  0.51132358  0.46122704  0.69167548     0.11980
S319        S  0.57056055  0.09135224  0.94393221    -0.31380
S320        S  0.48986732  0.40847745  0.72266682    -0.31380
H321        H  0.45932652  0.40075983  0.69345312     0.29990
H322        H  0.60109056  0.09908385  0.97315870     0.29980
H323        H  0.49344432  0.06409393  0.95614361     0.20580
H324        H  0.56698798  0.43572996  0.71045020     0.20580
C325        C  0.07017565  0.25134187  0.00094755    -0.05250
C326        C  0.05067972  0.20381944  0.67256247    -0.16380
C327        C  0.01098642  0.20185650  0.67132550     0.11950
C328        C  0.99028180  0.24855593  0.99895776    -0.05170
C329        C  0.00977893  0.29607806  0.99401471    -0.16410
C330        C  0.04947053  0.29804113  0.99526715     0.11980
S331        S  0.98855257  0.13871263  0.67722792    -0.31380
S332        S  0.07191105  0.36118695  0.98943849    -0.31380
H333        H  0.10429938  0.34997355  0.01474960     0.29990
H334        H  0.95606214  0.14992897  0.65209917     0.29980
H335        H  0.06654984  0.16793432  0.67678329     0.20580
H336        H  0.99391051  0.33196524  0.98979850     0.20580
C337        C  0.94844338  0.74925350  0.33256060     0.04000
C338        C  0.92848530  0.75063676  0.29256305    -0.12150
C339        C  0.88861040  0.75061459  0.29237478     0.01570
C340        C  0.86889337  0.75017235  0.99959284    -0.10670
C341        C  0.88870831  0.74941705  0.03998050     0.04000
C342        C  0.92859189  0.74866481  0.03943476    -0.10090
H343        H  0.94418529  0.75103888  0.26165853     0.09590
H344        H  0.83811204  0.75040489  0.99971696     0.07120
H345        H  0.94436883  0.74780884  0.07020108     0.06970
C346        C  0.11201442  0.75066000  0.33400106     0.04000
C347        C  0.13186197  0.75132770  0.29379087    -0.12150
C348        C  0.17174629  0.75061456  0.29323935     0.01500
C349        C  0.19156519  0.74983814  0.33362421    -0.10670
C350        C  0.17185143  0.74932383  0.04084368     0.04000
C351        C  0.13197697  0.74924500  0.04066030    -0.10090
H352        H  0.11608182  0.75220620  0.26302723     0.09590
H353        H  0.22234678  0.74964202  0.33349702     0.07120
H354        H  0.11627981  0.74878940  0.07156629     0.06970
O355        O  0.38446852  0.99904844  0.21401033    -0.56940
C356        C  0.36717497  0.50138547  0.08346958     0.75690
O357        O  0.27104909  0.94309124  0.16710791    -0.58100
C358        C  0.36718166  0.99951372  0.25076667     0.75660
C359        C  0.28945323  0.59989673  0.16744053     0.78050
Cd360      Cd  0.32756765  0.50044397  0.16718803     1.37460
O361        O  0.38446567  0.50183744  0.12013730    -0.56940
O362        O  0.32523913  0.59661567  0.16745928    -0.55750
C363        C  0.28943013  0.90067790  0.16668650     0.78010
O364        O  0.27107072  0.55733089  0.16743188    -0.58120
O365        O  0.33128544  0.50074046  0.08540913    -0.56570
O366        O  0.33129534  0.00038519  0.24899354    -0.56560
O367        O  0.32521129  0.90425792  0.16644793    -0.55730
O368        O  0.17515979  0.75080912  0.21392078    -0.56940
C369        C  0.19260594  0.74933624  0.08334416     0.75690
O370        O  0.28863262  0.80741329  0.16642713    -0.58100
C371        C  0.19245566  0.75052605  0.25058608     0.75660
C372        C  0.27025764  0.65058770  0.16734560     0.78050
Cd373      Cd  0.23213846  0.75004227  0.16689378     1.37470
O374        O  0.17531005  0.74902746  0.12009593    -0.56940
O375        O  0.23447265  0.65386765  0.16731496    -0.55750
C376        C  0.27024514  0.84982402  0.16658860     0.78010
O377        O  0.28863837  0.69315471  0.16721524    -0.58120
O378        O  0.22849724  0.74988802  0.08509577    -0.56570
O379        O  0.22834469  0.75001632  0.24863768    -0.56560
O380        O  0.23446321  0.84623777  0.16675721    -0.55730
O381        O  0.67597320  0.49808843  0.21312967    -0.56940
C382        C  0.69324975  0.00043201  0.08250114     0.75690
O383        O  0.78938745  0.55691102  0.16605776    -0.58100
C384        C  0.69326247  0.49856898  0.24979790     0.75660
C385        C  0.77099679  0.90010549  0.16584135     0.78050
Cd386      Cd  0.73287079  0.99955044  0.16607655     1.37470
O387        O  0.67596495  0.00096784  0.11925803    -0.56940
O388        O  0.73521104  0.90338136  0.16575150    -0.55750
C389        C  0.77100814  0.59932490  0.16652434     0.78010
O390        O  0.78937558  0.94267410  0.16592373    -0.58120
O391        O  0.72913545  0.99952113  0.08427329    -0.56570
O392        O  0.72915157  0.49927467  0.24785863    -0.56560
O393        O  0.73522695  0.59574426  0.16682806    -0.55730
O394        O  0.88529096  0.74926033  0.11929786    -0.56940
C395        C  0.86785626  0.75060622  0.24987303     0.75690
O396        O  0.77181570  0.80684827  0.16597292    -0.58100
C397        C  0.86799643  0.74953194  0.08263188     0.75660
C398        C  0.79019628  0.65017871  0.16661114     0.78050
Cd399      Cd  0.82831401  0.74996061  0.16632602     1.37470
O400        O  0.88515108  0.75086844  0.21312033    -0.56940
O401        O  0.82597820  0.65376193  0.16638584    -0.55750
C402        C  0.79019509  0.84941633  0.16592354     0.78010
O403        O  0.77181265  0.69259210  0.16682925    -0.58120
O404        O  0.83196456  0.75011588  0.24812224    -0.56570
O405        O  0.83210727  0.75003151  0.08457874    -0.56560
O406        O  0.82598009  0.84613818  0.16601503    -0.55730
C407        C  0.44790917  0.49838269  0.00031872     0.04000
C408        C  0.42779420  0.49801548  0.29360229    -0.12150
C409        C  0.38792036  0.49928147  0.29331066     0.01500
C410        C  0.36815947  0.50044129  0.00045234    -0.10670
C411        C  0.38791417  0.50111732  0.04083996     0.04000
C412        C  0.42778810  0.50092197  0.04039881    -0.10090
H413        H  0.44335941  0.49648811  0.26263895     0.09590
H414        H  0.33737925  0.50091006  0.00051959     0.07120
H415        H  0.44334232  0.50251687  0.07128322     0.06970
C416        C  0.61252266  0.00145650  0.99961262     0.04000
C417        C  0.63263551  0.00184618  0.03966382    -0.12150
C418        C  0.67251056  0.00062998  0.03995710     0.01500
C419        C  0.69227380  0.99949498  0.99948271    -0.10670
C420        C  0.67252147  0.99879908  0.29242729     0.04000
C421        C  0.63264739  0.99894091  0.29286690    -0.10090
H422        H  0.61706815  0.00335768  0.07062631     0.09590
H423        H  0.72305439  0.99906799  0.99941664     0.07120
H424        H  0.61709547  0.99733268  0.26198139     0.06970
C425        C  0.49006244  0.49766432  0.00004235    -0.05250
C426        C  0.50943564  0.53556406  0.30827199    -0.16380
C427        C  0.54910711  0.53859603  0.30825120     0.11950
C428        C  0.57036899  0.00215953  0.99988398    -0.05170
C429        C  0.55099608  0.96425783  0.02498696    -0.16410
C430        C  0.51132358  0.96122704  0.02500882     0.11980
S431        S  0.57056055  0.59135225  0.27726556    -0.31380
S432        S  0.48986732  0.90847747  0.05600018    -0.31380
H433        H  0.45932652  0.90075984  0.02678649     0.29990
H434        H  0.60109056  0.59908386  0.30649204     0.29980
H435        H  0.49344432  0.56409393  0.28947696     0.20580
H436        H  0.56698798  0.93572997  0.04378355     0.20580
C437        C  0.07017565  0.75134186  0.33428088    -0.05250
C438        C  0.05067972  0.70381941  0.00589570    -0.16380
C439        C  0.01098642  0.70185647  0.00465873     0.11950
C440        C  0.99028181  0.74855592  0.33229109    -0.05170
C441        C  0.00977894  0.79607805  0.32734798    -0.16410
C442        C  0.04947053  0.79804111  0.32860042     0.11980
S443        S  0.98855258  0.63871259  0.01056104    -0.31380
S444        S  0.07191106  0.86118693  0.32277172    -0.31380
H445        H  0.10429938  0.84997356  0.34808285     0.29990
H446        H  0.95606212  0.64992899  0.98543237     0.29980
H447        H  0.06654985  0.66793429  0.01011644     0.20580
H448        H  0.99391052  0.83196522  0.32313174     0.20580
C449        C  0.94844338  0.74925350  0.66589394     0.04000
C450        C  0.92848530  0.75063676  0.62589638    -0.12150
C451        C  0.88861040  0.75061459  0.62570811     0.01570
C452        C  0.86889337  0.75017235  0.33292617    -0.10670
C453        C  0.88870831  0.74941705  0.37331383     0.04000
C454        C  0.92859190  0.74866481  0.37276809    -0.10090
H455        H  0.94418529  0.75103889  0.59499187     0.09590
H456        H  0.83811204  0.75040489  0.33305030     0.07120
H457        H  0.94436883  0.74780884  0.40353441     0.06970
C458        C  0.11201442  0.75066000  0.66733439     0.04000
C459        C  0.13186197  0.75132770  0.62712421    -0.12150
C460        C  0.17174629  0.75061456  0.62657269     0.01500
C461        C  0.19156519  0.74983814  0.66695754    -0.10670
C462        C  0.17185143  0.74932383  0.37417702     0.04000
C463        C  0.13197698  0.74924500  0.37399363    -0.10090
H464        H  0.11608182  0.75220621  0.59636057     0.09590
H465        H  0.22234678  0.74964202  0.66683036     0.07120
H466        H  0.11627981  0.74878940  0.40489962     0.06970
O467        O  0.38446852  0.99904845  0.54734366    -0.56940
C468        C  0.36717497  0.50138548  0.41680291     0.75690
O469        O  0.27104909  0.94309125  0.50044125    -0.58100
C470        C  0.36718166  0.99951373  0.58410000     0.75660
C471        C  0.28945323  0.59989674  0.50077386     0.78050
Cd472      Cd  0.32756764  0.50044397  0.50052136     1.37460
O473        O  0.38446566  0.50183744  0.45347064    -0.56940
O474        O  0.32523912  0.59661567  0.50079263    -0.55750
C475        C  0.28943013  0.90067791  0.50001984     0.78010
O476        O  0.27107072  0.55733089  0.50076521    -0.58120
O477        O  0.33128544  0.50074046  0.41874247    -0.56570
O478        O  0.33129534  0.00038520  0.58232687    -0.56560
O479        O  0.32521128  0.90425793  0.49978126    -0.55730
O480        O  0.17515979  0.75080913  0.54725411    -0.56940
C481        C  0.19260594  0.74933624  0.41667749     0.75690
O482        O  0.28863262  0.80741330  0.49976047    -0.58100
C483        C  0.19245566  0.75052606  0.58391941     0.75660
C484        C  0.27025764  0.65058771  0.50067893     0.78050
Cd485      Cd  0.23213846  0.75004228  0.50022712     1.37470
O486        O  0.17531005  0.74902746  0.45342926    -0.56940
O487        O  0.23447265  0.65386766  0.50064829    -0.55750
C488        C  0.27024514  0.84982402  0.49992194     0.78010
O489        O  0.28863837  0.69315472  0.50054859    -0.58120
O490        O  0.22849725  0.74988803  0.41842910    -0.56570
O491        O  0.22834468  0.75001632  0.58197102    -0.56560
O492        O  0.23446321  0.84623777  0.50009055    -0.55730
O493        O  0.67597320  0.49808844  0.54646300    -0.56940
C494        C  0.69324975  0.00043201  0.41583448     0.75690
O495        O  0.78938746  0.55691102  0.49939108    -0.58100
C496        C  0.69326247  0.49856899  0.58313123     0.75660
C497        C  0.77099680  0.90010549  0.49917468     0.78050
Cd498      Cd  0.73287080  0.99955044  0.49940988     1.37470
O499        O  0.67596495  0.00096784  0.45259136    -0.56940
O500        O  0.73521104  0.90338136  0.49908482    -0.55750
C501        C  0.77100814  0.59932491  0.49985767     0.78010
O502        O  0.78937558  0.94267411  0.49925708    -0.58120
O503        O  0.72913545  0.99952113  0.41760662    -0.56570
O504        O  0.72915158  0.49927467  0.58119196    -0.56560
O505        O  0.73522695  0.59574427  0.50016140    -0.55730
O506        O  0.88529097  0.74926033  0.45263119    -0.56940
C507        C  0.86785626  0.75060622  0.58320637     0.75690
O508        O  0.77181571  0.80684828  0.49930624    -0.58100
C509        C  0.86799644  0.74953194  0.41596522     0.75660
C510        C  0.79019629  0.65017871  0.49994447     0.78050
Cd511      Cd  0.82831402  0.74996061  0.49965935     1.37470
O512        O  0.88515108  0.75086845  0.54645366    -0.56940
O513        O  0.82597821  0.65376193  0.49971916    -0.55750
C514        C  0.79019509  0.84941634  0.49925687     0.78010
O515        O  0.77181265  0.69259210  0.50016259    -0.58120
O516        O  0.83196456  0.75011587  0.58145557    -0.56570
O517        O  0.83210727  0.75003152  0.41791208    -0.56560
O518        O  0.82598010  0.84613819  0.49934837    -0.55730
C519        C  0.44790917  0.49838269  0.33365206     0.04000
C520        C  0.42779420  0.49801549  0.62693562    -0.12150
C521        C  0.38792036  0.49928148  0.62664399     0.01500
C522        C  0.36815946  0.50044129  0.33378567    -0.10670
C523        C  0.38791416  0.50111733  0.37417329     0.04000
C524        C  0.42778809  0.50092197  0.37373215    -0.10090
H525        H  0.44335941  0.49648812  0.59597228     0.09590
H526        H  0.33737925  0.50091007  0.33385292     0.07120
H527        H  0.44334232  0.50251687  0.40461656     0.06970
C528        C  0.61252266  0.00145649  0.33294596     0.04000
C529        C  0.63263551  0.00184617  0.37299715    -0.12150
C530        C  0.67251056  0.00062998  0.37329044     0.01500
C531        C  0.69227380  0.99949497  0.33281605    -0.10670
C532        C  0.67252147  0.99879908  0.62576062     0.04000
C533        C  0.63264739  0.99894092  0.62620023    -0.10090
H534        H  0.61706815  0.00335768  0.40395965     0.09590
H535        H  0.72305439  0.99906799  0.33274997     0.07120
H536        H  0.61709548  0.99733269  0.59531472     0.06970
C537        C  0.49006243  0.49766432  0.33337569    -0.05250
C538        C  0.50943564  0.53556406  0.64160532    -0.16380
C539        C  0.54910712  0.53859603  0.64158454     0.11950
C540        C  0.57036899  0.00215952  0.33321732    -0.05170
C541        C  0.55099608  0.96425783  0.35832030    -0.16410
C542        C  0.51132358  0.96122705  0.35834217     0.11980
S543        S  0.57056055  0.59135227  0.61059891    -0.31380
S544        S  0.48986732  0.90847748  0.38933354    -0.31380
H545        H  0.45932652  0.90075984  0.36011985     0.29990
H546        H  0.60109056  0.59908386  0.63982539     0.29980
H547        H  0.49344432  0.56409395  0.62281030     0.20580
H548        H  0.56698798  0.93572998  0.37711690     0.20580
C549        C  0.07017565  0.75134186  0.66761422    -0.05250
C550        C  0.05067973  0.70381942  0.33922908    -0.16380
C551        C  0.01098642  0.70185648  0.33799211     0.11950
C552        C  0.99028181  0.74855592  0.66562443    -0.05170
C553        C  0.00977894  0.79607804  0.66068127    -0.16410
C554        C  0.04947053  0.79804110  0.66193371     0.11980
S555        S  0.98855258  0.63871261  0.34389447    -0.31380
S556        S  0.07191107  0.86118691  0.65610495    -0.31380
H557        H  0.10429937  0.84997357  0.68141610     0.29990
H558        H  0.95606213  0.64992898  0.31876577     0.29980
H559        H  0.06654985  0.66793430  0.34344985     0.20580
H560        H  0.99391052  0.83196520  0.65646499     0.20580
C561        C  0.94844337  0.74925350  0.99922727     0.04000
C562        C  0.92848530  0.75063675  0.95922972    -0.12150
C563        C  0.88861040  0.75061458  0.95904144     0.01570
C564        C  0.86889337  0.75017234  0.66625951    -0.10670
C565        C  0.88870831  0.74941704  0.70664717     0.04000
C566        C  0.92859190  0.74866480  0.70610143    -0.10090
H567        H  0.94418529  0.75103888  0.92832521     0.09590
H568        H  0.83811204  0.75040488  0.66638363     0.07120
H569        H  0.94436883  0.74780883  0.73686775     0.06970
C570        C  0.11201442  0.75066000  0.00066772     0.04000
C571        C  0.13186196  0.75132770  0.96045754    -0.12150
C572        C  0.17174629  0.75061456  0.95990602     0.01500
C573        C  0.19156519  0.74983814  0.00029087    -0.10670
C574        C  0.17185144  0.74932382  0.70751035     0.04000
C575        C  0.13197698  0.74924499  0.70732697    -0.10090
H576        H  0.11608182  0.75220620  0.92969389     0.09590
H577        H  0.22234677  0.74964202  0.00016369     0.07120
H578        H  0.11627981  0.74878939  0.73823296     0.06970
O579        O  0.38446852  0.99904844  0.88067699    -0.56940
C580        C  0.36717497  0.50138547  0.75013624     0.75690
O581        O  0.27104909  0.94309124  0.83377458    -0.58100
C582        C  0.36718166  0.99951372  0.91743333     0.75660
C583        C  0.28945324  0.59989673  0.83410720     0.78050
Cd584      Cd  0.32756765  0.50044396  0.83385469     1.37460
O585        O  0.38446567  0.50183743  0.78680397    -0.56940
O586        O  0.32523913  0.59661566  0.83412595    -0.55750
C587        C  0.28943013  0.90067790  0.83335317     0.78010
O588        O  0.27107072  0.55733088  0.83409855    -0.58120
O589        O  0.33128544  0.50074046  0.75207580    -0.56570
O590        O  0.33129534  0.00038519  0.91566021    -0.56560
O591        O  0.32521129  0.90425792  0.83311460    -0.55730
O592        O  0.17515979  0.75080912  0.88058744    -0.56940
C593        C  0.19260594  0.74933623  0.75001083     0.75690
O594        O  0.28863263  0.80741329  0.83309381    -0.58100
C595        C  0.19245566  0.75052605  0.91725274     0.75660
C596        C  0.27025764  0.65058770  0.83401227     0.78050
Cd597      Cd  0.23213846  0.75004227  0.83356045     1.37470
O598        O  0.17531006  0.74902745  0.78676260    -0.56940
O599        O  0.23447265  0.65386765  0.83398162    -0.55750
C600        C  0.27024514  0.84982401  0.83325527     0.78010
O601        O  0.28863837  0.69315471  0.83388192    -0.58120
O602        O  0.22849725  0.74988801  0.75176244    -0.56570
O603        O  0.22834468  0.75001632  0.91530435    -0.56560
O604        O  0.23446321  0.84623776  0.83342388    -0.55730
O605        O  0.67597320  0.49808842  0.87979634    -0.56940
C606        C  0.69324976  0.00043200  0.74916781     0.75690
O607        O  0.78938746  0.55691101  0.83272443    -0.58100
C608        C  0.69326247  0.49856898  0.91646457     0.75660
C609        C  0.77099680  0.90010548  0.83250801     0.78050
Cd610      Cd  0.73287079  0.99955043  0.83274322     1.37470
O611        O  0.67596495  0.00096783  0.78592469    -0.56940
O612        O  0.73521104  0.90338135  0.83241817    -0.55750
C613        C  0.77100814  0.59932490  0.83319101     0.78010
O614        O  0.78937558  0.94267410  0.83259040    -0.58120
O615        O  0.72913546  0.99952113  0.75093996    -0.56570
O616        O  0.72915158  0.49927467  0.91452530    -0.56560
O617        O  0.73522695  0.59574425  0.83349472    -0.55730
O618        O  0.88529096  0.74926032  0.78596453    -0.56940
C619        C  0.86785626  0.75060621  0.91653970     0.75690
O620        O  0.77181570  0.80684827  0.83263959    -0.58100
C621        C  0.86799644  0.74953193  0.74929855     0.75660
C622        C  0.79019629  0.65017870  0.83327780     0.78050
Cd623      Cd  0.82831401  0.74996060  0.83299269     1.37470
O624        O  0.88515108  0.75086844  0.87978699    -0.56940
O625        O  0.82597821  0.65376192  0.83305251    -0.55750
C626        C  0.79019509  0.84941632  0.83259021     0.78010
O627        O  0.77181265  0.69259209  0.83349591    -0.58120
O628        O  0.83196456  0.75011587  0.91478891    -0.56570
O629        O  0.83210727  0.75003151  0.75124541    -0.56560
O630        O  0.82598009  0.84613818  0.83268169    -0.55730
C631        C  0.44790917  0.49838270  0.66698539     0.04000
C632        C  0.42779420  0.49801548  0.96026896    -0.12150
C633        C  0.38792036  0.49928147  0.95997733     0.01500
C634        C  0.36815946  0.50044129  0.66711900    -0.10670
C635        C  0.38791416  0.50111733  0.70750662     0.04000
C636        C  0.42778810  0.50092197  0.70706547    -0.10090
H637        H  0.44335941  0.49648811  0.92930561     0.09590
H638        H  0.33737925  0.50091007  0.66718626     0.07120
H639        H  0.44334232  0.50251687  0.73794989     0.06970
C640        C  0.61252266  0.00145650  0.66627929     0.04000
C641        C  0.63263551  0.00184617  0.70633048    -0.12150
C642        C  0.67251056  0.00062998  0.70662377     0.01500
C643        C  0.69227381  0.99949497  0.66614938    -0.10670
C644        C  0.67252147  0.99879908  0.95909395     0.04000
C645        C  0.63264739  0.99894092  0.95953357    -0.10090
H646        H  0.61706815  0.00335767  0.73729298     0.09590
H647        H  0.72305440  0.99906799  0.66608330     0.07120
H648        H  0.61709548  0.99733269  0.92864805     0.06970
C649        C  0.49006243  0.49766432  0.66670902    -0.05250
C650        C  0.50943564  0.53556406  0.97493866    -0.16380
C651        C  0.54910712  0.53859603  0.97491787     0.11950
C652        C  0.57036899  0.00215952  0.66655065    -0.05170
C653        C  0.55099608  0.96425783  0.69165362    -0.16410
C654        C  0.51132358  0.96122704  0.69167549     0.11980
S655        S  0.57056055  0.59135226  0.94393224    -0.31380
S656        S  0.48986732  0.90847746  0.72266685    -0.31380
H657        H  0.45932652  0.90075984  0.69345315     0.29990
H658        H  0.60109056  0.59908386  0.97315872     0.29980
H659        H  0.49344432  0.56409395  0.95614363     0.20580
H660        H  0.56698798  0.93572997  0.71045022     0.20580
C661        C  0.07017565  0.75134186  0.00094755    -0.05250
C662        C  0.05067972  0.70381943  0.67256247    -0.16380
C663        C  0.01098642  0.70185649  0.67132550     0.11950
C664        C  0.99028181  0.74855592  0.99895776    -0.05170
C665        C  0.00977893  0.79607805  0.99401470    -0.16410
C666        C  0.04947053  0.79804112  0.99526714     0.11980
S667        S  0.98855258  0.63871262  0.67722792    -0.31380
S668        S  0.07191105  0.86118695  0.98943849    -0.31380
H669        H  0.10429938  0.84997354  0.01474959     0.29990
H670        H  0.95606214  0.64992896  0.65209917     0.29980
H671        H  0.06654985  0.66793431  0.67678328     0.20580
H672        H  0.99391051  0.83196523  0.98979850     0.20580
loop_ 
_geom_bond_atom_site_label_1 
_geom_bond_atom_site_label_2 
_geom_bond_distance 
_geom_bond_site_symmetry_2 
_ccdc_geom_bond_type 
C1            C2   1.399       .  A
C1          C118   1.400       .  A
C1          C104   1.474       .  S
C2            C3   1.405       .  A
C2            H7   1.084       .  S
C3          C116   1.406       .  A
C3           C59   1.478       .  S
C4            C5   1.407   1_556  A
C4          C227   1.406       .  A
C4            H8   1.084       .  S
C5            C6   1.405       .  A
C5           C61   1.479       .  S
C6          C225   1.400   1_554  A
C6            H9   1.084       .  S
C10          C11   1.400       .  A
C10         C127   1.399       .  A
C10         C101   1.474       .  S
C11          C12   1.405       .  A
C11          H16   1.084       .  S
C12          C13   1.407       .  A
C12          C35   1.479       .  S
C13         C126   1.406       .  A
C13          H17   1.084       .  S
C14          C15   1.405       .  A
C14         C237   1.406       .  A
C14          C33   1.478       .  S
C15         C234   1.399       .  A
C15          H18   1.084       .  S
O19          C22   1.265       .  A
O19        Cd360   2.456       .  S
C20          C75   1.479       .  S
C20          O29   1.266       .  A
C20          O25   1.265       .  A
O21          C27   1.265       .  A
O21        Cd360   2.469       .  S
C22         C409   1.479       .  S
C22          O30   1.266       .  A
C23          C36   1.464       .  S
C23          O28   1.265       .  A
C23          O26   1.264       .  A
Cd24         O29   2.472       .  S
Cd24         O25   2.454       .  S
Cd24         O28   2.469       .  S
Cd24         O26   2.461       .  S
Cd24        O355   2.456   1_545  S
Cd24        O357   2.469   1_545  S
Cd24        O367   2.461   1_545  S
Cd24        O366   2.474       .  S
C27          C40   1.464       .  S
C27          O31   1.263       .  A
O30        Cd360   2.474       .  S
O31        Cd360   2.461       .  S
O32          C35   1.265       .  A
O32         Cd37   2.456       .  S
C33          O42   1.266       .  A
C33          O38   1.265       .  A
O34          C40   1.265       .  A
O34         Cd37   2.469       .  S
C35          O43   1.266       .  A
C36          O41   1.265       .  A
C36          O39   1.264       .  A
Cd37         O44   2.462       .  S
Cd37         O43   2.472       .  S
Cd37         O42   2.473       .  S
Cd37         O38   2.453       .  S
Cd37         O41   2.469       .  S
Cd37         O39   2.461       .  S
C40          O44   1.264       .  A
O45          C48   1.265       .  A
O45        Cd386   2.454       .  S
C46          C82   1.479       .  S
C46          O55   1.266       .  A
C46          O51   1.265       .  A
O47          C53   1.265       .  A
O47        Cd386   2.470   1_545  S
C48         C420   1.479       .  S
C48          O56   1.266       .  A
C49          C66   1.464       .  S
C49          O54   1.265       .  A
C49          O52   1.264       .  A
Cd50         O55   2.474       .  S
Cd50         O51   2.456       .  S
Cd50         O54   2.469       .  S
Cd50         O52   2.461       .  S
Cd50        O381   2.454       .  S
Cd50        O383   2.470       .  S
Cd50        O393   2.462       .  S
Cd50        O392   2.473       .  S
C53          C62   1.464       .  S
C53          O57   1.263       .  A
O56        Cd386   2.473       .  S
O57        Cd386   2.462   1_545  S
O58          C61   1.265       .  A
O58         Cd63   2.456       .  S
C59          O68   1.266       .  A
C59          O64   1.265       .  A
O60          C66   1.265       .  A
O60         Cd63   2.469       .  S
C61          O69   1.266       .  A
C62          O67   1.265       .  A
C62          O65   1.264       .  A
Cd63         O70   2.462       .  S
Cd63         O69   2.472       .  S
Cd63         O68   2.473       .  S
Cd63         O64   2.453       .  S
Cd63         O67   2.469       .  S
Cd63         O65   2.462       .  S
C66          O70   1.264       .  A
C71          C76   1.403   1_565  A
C71         C296   1.403   1_554  A
C71          C89   1.485       .  S
C72          C73   1.405       .  A
C72         C183   1.403       .  A
C72          H77   1.084       .  S
C73         C186   1.406   1_565  A
C73         C358   1.479       .  S
C74          C75   1.406       .  A
C74         C297   1.406   1_544  A
C74          H78   1.084       .  S
C75          C76   1.405       .  A
C76          H79   1.083       .  S
C80          C81   1.403   1_556  A
C80         C309   1.403       .  A
C80          C92   1.485       .  S
C81          C82   1.405       .  A
C81          H86   1.084       .  S
C82          C83   1.406   1_554  A
C83         C308   1.406       .  A
C83          H87   1.084       .  S
C84          C85   1.405       .  A
C84         C195   1.406       .  A
C84         C384   1.479       .  S
C85         C192   1.403       .  A
C85          H88   1.083       .  S
C89         C314   1.404   1_564  A
C89         C430   1.415       .  A
C90          C91   1.399       .  A
C90         C201   1.404   1_545  A
C90          H99   1.084       .  S
C91         C540   1.415       .  A
C91          S95   1.804       .  S
C92          C93   1.404   1_556  A
C92         C651   1.415       .  A
C93          C94   1.399       .  A
C93         H100   1.084       .  S
C94         C425   1.415       .  A
C94          S96   1.804       .  S
S95          H98   1.406       .  S
S96          H97   1.406       .  S
C101        C106   1.412       .  A
C101        C214   1.402       .  A
C102        C103   1.400       .  A
C102        C325   1.402       .  A
C102        H111   1.084       .  S
C103        C328   1.412   1_454  A
C103        S107   1.804   1_455  S
C104        C105   1.402   1_655  A
C104        C215   1.412   1_655  A
C105        C106   1.400       .  A
C105        H112   1.084   1_455  S
C106        S108   1.804       .  S
S107        H110   1.405   1_554  S
S108        H109   1.405       .  S
C113        C114   1.399       .  A
C113        C230   1.400       .  A
C113        C216   1.474       .  S
C114        C115   1.405       .  A
C114        H119   1.084       .  S
C115        C228   1.406       .  A
C115        C171   1.478       .  S
C116        C117   1.407       .  A
C116        H120   1.084       .  S
C117        C118   1.405       .  A
C117        C173   1.479       .  S
C118        H121   1.084       .  S
C122        C123   1.400       .  A
C122        C239   1.399       .  A
C122        C213   1.474       .  S
C123        C124   1.405       .  A
C123        H128   1.084       .  S
C124        C125   1.407       .  A
C124        C147   1.479       .  S
C125        C238   1.406       .  A
C125        H129   1.084       .  S
C126        C127   1.405       .  A
C126        C145   1.478       .  S
C127        H130   1.084       .  S
O131        C134   1.265       .  A
O131       Cd472   2.456       .  S
C132        C187   1.479       .  S
C132        O141   1.266       .  A
C132        O137   1.265       .  A
O133        C139   1.265       .  A
O133       Cd472   2.469       .  S
C134        C521   1.479       .  S
C134        O142   1.266       .  A
C135        C148   1.464       .  S
C135        O140   1.265       .  A
C135        O138   1.264       .  A
Cd136       O467   2.456   1_545  S
Cd136       O469   2.469   1_545  S
Cd136       O479   2.461   1_545  S
Cd136       O478   2.474       .  S
Cd136       O141   2.472       .  S
Cd136       O137   2.454       .  S
Cd136       O140   2.469       .  S
Cd136       O138   2.461       .  S
C139        C152   1.464       .  S
C139        O143   1.263       .  A
O142       Cd472   2.474       .  S
O143       Cd472   2.461       .  S
O144        C147   1.265       .  A
O144       Cd149   2.456       .  S
C145        O154   1.266       .  A
C145        O150   1.265       .  A
O146        C152   1.265       .  A
O146       Cd149   2.469       .  S
C147        O155   1.266       .  A
C148        O153   1.265       .  A
C148        O151   1.264       .  A
Cd149       O156   2.462       .  S
Cd149       O155   2.472       .  S
Cd149       O154   2.473       .  S
Cd149       O150   2.453       .  S
Cd149       O153   2.469       .  S
Cd149       O151   2.461       .  S
C152        O156   1.264       .  A
O157        C160   1.265       .  A
O157       Cd498   2.454       .  S
C158        C194   1.479       .  S
C158        O167   1.266       .  A
C158        O163   1.265       .  A
O159        C165   1.265       .  A
O159       Cd498   2.470   1_545  S
C160        C532   1.479       .  S
C160        O168   1.266       .  A
C161        C178   1.464       .  S
C161        O166   1.265       .  A
C161        O164   1.264       .  A
Cd162       O493   2.454       .  S
Cd162       O495   2.470       .  S
Cd162       O505   2.462       .  S
Cd162       O504   2.473       .  S
Cd162       O167   2.474       .  S
Cd162       O163   2.456       .  S
Cd162       O166   2.469       .  S
Cd162       O164   2.461       .  S
C165        C174   1.464       .  S
C165        O169   1.263       .  A
O168       Cd498   2.473       .  S
O169       Cd498   2.462   1_545  S
O170        C173   1.265       .  A
O170       Cd175   2.456       .  S
C171        O180   1.266       .  A
C171        O176   1.265       .  A
O172        C178   1.265       .  A
O172       Cd175   2.469       .  S
C173        O181   1.266       .  A
C174        O179   1.265       .  A
C174        O177   1.264       .  A
Cd175       O182   2.462       .  S
Cd175       O181   2.472       .  S
Cd175       O180   2.473       .  S
Cd175       O176   2.453       .  S
Cd175       O179   2.469       .  S
Cd175       O177   2.462       .  S
C178        O182   1.264       .  A
C183        C188   1.403   1_565  A
C183        C201   1.485       .  S
C184        C295   1.403       .  A
C184        C185   1.405       .  A
C184        H189   1.084       .  S
C185        C298   1.406   1_565  A
C185        C470   1.479       .  S
C186        C187   1.406       .  A
C186        H190   1.084       .  S
C187        C188   1.405       .  A
C188        H191   1.083       .  S
C192        C193   1.403       .  A
C192        C204   1.485       .  S
C193        C194   1.405       .  A
C193        H198   1.084       .  S
C194        C195   1.406       .  A
C195        H199   1.084       .  S
C196        C307   1.406       .  A
C196        C197   1.405       .  A
C196        C496   1.479       .  S
C197        C304   1.403       .  A
C197        H200   1.083       .  S
C201        C542   1.415       .  A
C202        C313   1.404   1_545  A
C202        C203   1.399       .  A
C202        H211   1.084       .  S
C203        C652   1.415       .  A
C203        S207   1.804       .  S
C204        C427   1.415       .  A
C204        C205   1.404       .  A
C205        C206   1.399       .  A
C205        H212   1.084       .  S
C206        C537   1.415       .  A
C206        S208   1.804       .  S
S207        H210   1.406       .  S
S208        H209   1.406       .  S
C213        C326   1.402       .  A
C213        C218   1.412       .  A
C214        C215   1.400       .  A
C214        H223   1.084       .  S
C215        S219   1.804   1_455  S
C216        C327   1.412   1_655  A
C216        C217   1.402   1_655  A
C217        C218   1.400       .  A
C217        H224   1.084   1_455  S
C218        S220   1.804       .  S
S219        H222   1.405       .  S
S220        H221   1.405       .  S
C225        C226   1.399       .  A
C225        C328   1.474       .  S
C226        C227   1.405       .  A
C226        H231   1.084       .  S
C227        C283   1.478       .  S
C228        C229   1.407       .  A
C228        H232   1.084       .  S
C229        C230   1.405       .  A
C229        C285   1.479       .  S
C230        H233   1.084       .  S
C234        C235   1.400   1_554  A
C234        C325   1.474       .  S
C235        C236   1.405       .  A
C235        H240   1.084       .  S
C236        C237   1.407   1_556  A
C236        C259   1.479       .  S
C237        H241   1.084       .  S
C238        C239   1.405       .  A
C238        C257   1.478       .  S
C239        H242   1.084       .  S
O243        C246   1.265       .  A
O243       Cd584   2.456       .  S
C244        C299   1.479       .  S
C244        O253   1.266       .  A
C244        O249   1.265       .  A
O245        C251   1.265       .  A
O245       Cd584   2.469       .  S
C246        C633   1.479       .  S
C246        O254   1.266       .  A
C247        C260   1.464       .  S
C247        O252   1.265       .  A
C247        O250   1.264       .  A
Cd248       O579   2.456   1_545  S
Cd248       O581   2.469   1_545  S
Cd248       O591   2.461   1_545  S
Cd248       O590   2.474       .  S
Cd248       O253   2.472       .  S
Cd248       O249   2.454       .  S
Cd248       O252   2.469       .  S
Cd248       O250   2.461       .  S
C251        C264   1.464       .  S
C251        O255   1.263       .  A
O254       Cd584   2.474       .  S
O255       Cd584   2.461       .  S
O256        C259   1.265       .  A
O256       Cd261   2.456       .  S
C257        O266   1.266       .  A
C257        O262   1.265       .  A
O258        C264   1.265       .  A
O258       Cd261   2.469       .  S
C259        O267   1.266       .  A
C260        O265   1.265       .  A
C260        O263   1.264       .  A
Cd261       O268   2.462       .  S
Cd261       O267   2.472       .  S
Cd261       O266   2.473       .  S
Cd261       O262   2.453       .  S
Cd261       O265   2.469       .  S
Cd261       O263   2.461       .  S
C264        O268   1.264       .  A
O269        C272   1.265       .  A
O269       Cd610   2.454       .  S
C270        C306   1.479       .  S
C270        O279   1.266       .  A
C270        O275   1.265       .  A
O271        C277   1.265       .  A
O271       Cd610   2.470   1_545  S
C272        C644   1.479       .  S
C272        O280   1.266       .  A
C273        C290   1.464       .  S
C273        O278   1.265       .  A
C273        O276   1.264       .  A
Cd274       O605   2.454       .  S
Cd274       O607   2.470       .  S
Cd274       O617   2.462       .  S
Cd274       O616   2.473       .  S
Cd274       O279   2.474       .  S
Cd274       O275   2.456       .  S
Cd274       O278   2.469       .  S
Cd274       O276   2.461       .  S
C277        C286   1.464       .  S
C277        O281   1.263       .  A
O280       Cd610   2.473       .  S
O281       Cd610   2.462   1_545  S
O282        C285   1.265       .  A
O282       Cd287   2.456       .  S
C283        O292   1.266       .  A
C283        O288   1.265       .  A
O284        C290   1.265       .  A
O284       Cd287   2.469       .  S
C285        O293   1.266       .  A
C286        O291   1.265       .  A
C286        O289   1.264       .  A
Cd287       O294   2.462       .  S
Cd287       O293   2.472       .  S
Cd287       O292   2.473       .  S
Cd287       O288   2.453       .  S
Cd287       O291   2.469       .  S
Cd287       O289   2.462       .  S
C290        O294   1.264       .  A
C295        C300   1.403   1_565  A
C295        C313   1.485       .  S
C296        C297   1.405       .  A
C296        H301   1.084       .  S
C297        C582   1.479       .  S
C298        C299   1.406       .  A
C298        H302   1.084       .  S
C299        C300   1.405       .  A
C300        H303   1.083       .  S
C304        C305   1.403       .  A
C304        C316   1.485       .  S
C305        C306   1.405       .  A
C305        H310   1.084       .  S
C306        C307   1.406       .  A
C307        H311   1.084       .  S
C308        C309   1.405       .  A
C308        C608   1.479       .  S
C309        H312   1.083       .  S
C313        C654   1.415       .  A
C314        C315   1.399       .  A
C314        H323   1.084       .  S
C315        C428   1.415       .  A
C315        S319   1.804       .  S
C316        C539   1.415       .  A
C316        C317   1.404       .  A
C317        C318   1.399       .  A
C317        H324   1.084       .  S
C318        C649   1.415       .  A
C318        S320   1.804       .  S
S319        H322   1.406       .  S
S320        H321   1.406       .  S
C325        C330   1.412   1_554  A
C326        C327   1.400       .  A
C326        H335   1.084       .  S
C327        S331   1.804   1_455  S
C328        C329   1.402   1_655  A
C329        C330   1.400       .  A
C329        H336   1.084   1_455  S
C330        S332   1.804       .  S
S331        H334   1.405       .  S
S332        H333   1.405   1_556  S
C337        C338   1.399       .  A
C337        C454   1.400       .  A
C337        C440   1.474       .  S
C338        C339   1.405       .  A
C338        H343   1.084       .  S
C339        C452   1.406       .  A
C339        C395   1.478       .  S
C340        C563   1.406       .  A
C340        C341   1.407   1_556  A
C340        H344   1.084       .  S
C341        C342   1.405       .  A
C341        C397   1.479       .  S
C342        C561   1.400   1_554  A
C342        H345   1.084       .  S
C346        C347   1.400       .  A
C346        C463   1.399       .  A
C346        C437   1.474       .  S
C347        C348   1.405       .  A
C347        H352   1.084       .  S
C348        C349   1.407       .  A
C348        C371   1.479       .  S
C349        C462   1.406       .  A
C349        H353   1.084       .  S
C350        C573   1.406       .  A
C350        C351   1.405       .  A
C350        C369   1.478       .  S
C351        C570   1.399       .  A
C351        H354   1.084       .  S
O355        C358   1.265       .  A
C356        C411   1.479       .  S
C356        O365   1.266       .  A
C356        O361   1.265       .  A
O357        C363   1.265       .  A
C358        O366   1.266   1_565  A
C359        C372   1.464       .  S
C359        O364   1.265       .  A
C359        O362   1.264       .  A
Cd360       O365   2.472       .  S
Cd360       O361   2.454       .  S
Cd360       O364   2.469       .  S
Cd360       O362   2.461       .  S
C363        C376   1.464       .  S
C363        O367   1.263       .  A
O368        C371   1.265       .  A
O368       Cd373   2.456       .  S
C369        O378   1.266       .  A
C369        O374   1.265       .  A
O370        C376   1.265       .  A
O370       Cd373   2.469       .  S
C371        O379   1.266       .  A
C372        O377   1.265       .  A
C372        O375   1.264       .  A
Cd373       O380   2.462       .  S
Cd373       O379   2.472       .  S
Cd373       O378   2.473       .  S
Cd373       O374   2.453       .  S
Cd373       O377   2.469       .  S
Cd373       O375   2.461       .  S
C376        O380   1.264       .  A
O381        C384   1.265       .  A
C382        C418   1.479       .  S
C382        O391   1.266   1_545  A
C382        O387   1.265       .  A
O383        C389   1.265       .  A
C384        O392   1.266       .  A
C385        C402   1.464       .  S
C385        O390   1.265       .  A
C385        O388   1.264       .  A
Cd386       O391   2.474       .  S
Cd386       O387   2.456   1_565  S
Cd386       O390   2.469       .  S
Cd386       O388   2.461       .  S
C389        C398   1.464       .  S
C389        O393   1.263       .  A
O394        C397   1.265       .  A
O394       Cd399   2.456       .  S
C395        O404   1.266       .  A
C395        O400   1.265       .  A
O396        C402   1.265       .  A
O396       Cd399   2.469       .  S
C397        O405   1.266       .  A
C398        O403   1.265       .  A
C398        O401   1.264       .  A
Cd399       O406   2.462       .  S
Cd399       O405   2.472       .  S
Cd399       O404   2.473       .  S
Cd399       O400   2.453       .  S
Cd399       O403   2.469       .  S
Cd399       O401   2.462       .  S
C402        O406   1.264       .  A
C407        C632   1.403   1_554  A
C407        C412   1.403       .  A
C407        C425   1.485       .  S
C408        C519   1.403       .  A
C408        C409   1.405       .  A
C408        H413   1.084       .  S
C409        C522   1.406       .  A
C410        C633   1.406   1_554  A
C410        C411   1.406       .  A
C410        H414   1.084       .  S
C411        C412   1.405       .  A
C412        H415   1.083       .  S
C416        C417   1.403   1_556  A
C416        C645   1.403   1_545  A
C416        C428   1.485       .  S
C417        C418   1.405       .  A
C417        H422   1.084       .  S
C418        C419   1.406   1_544  A
C419        C644   1.406       .  A
C419        H423   1.084       .  S
C420        C531   1.406       .  A
C420        C421   1.405       .  A
C421        C528   1.403   1_565  A
C421        H424   1.083       .  S
C425        C650   1.404   1_554  A
C426        C537   1.404       .  A
C426        C427   1.399       .  A
C426        H435   1.084       .  S
C427        S431   1.804       .  S
C428        C429   1.404   1_546  A
C429        C430   1.399       .  A
C429        H436   1.084       .  S
C430        S432   1.804       .  S
S431        H434   1.406       .  S
S432        H433   1.406       .  S
C437        C550   1.402       .  A
C437        C442   1.412       .  A
C438        C661   1.402       .  A
C438        C439   1.400       .  A
C438        H447   1.084       .  S
C439        C664   1.412   1_454  A
C439        S443   1.804   1_455  S
C440        C551   1.412   1_655  A
C440        C441   1.402   1_655  A
C441        C442   1.400       .  A
C441        H448   1.084   1_455  S
C442        S444   1.804       .  S
S443        H446   1.405   1_554  S
S444        H445   1.405       .  S
C449        C450   1.399       .  A
C449        C566   1.400       .  A
C449        C552   1.474       .  S
C450        C451   1.405       .  A
C450        H455   1.084       .  S
C451        C564   1.406       .  A
C451        C507   1.478       .  S
C452        C453   1.407       .  A
C452        H456   1.084       .  S
C453        C454   1.405       .  A
C453        C509   1.479       .  S
C454        H457   1.084       .  S
C458        C459   1.400       .  A
C458        C575   1.399       .  A
C458        C549   1.474       .  S
C459        C460   1.405       .  A
C459        H464   1.084       .  S
C460        C461   1.407       .  A
C460        C483   1.479       .  S
C461        C574   1.406       .  A
C461        H465   1.084       .  S
C462        C463   1.405       .  A
C462        C481   1.478       .  S
C463        H466   1.084       .  S
O467        C470   1.265       .  A
C468        C523   1.479       .  S
C468        O477   1.266       .  A
C468        O473   1.265       .  A
O469        C475   1.265       .  A
C470        O478   1.266   1_565  A
C471        C484   1.464       .  S
C471        O476   1.265       .  A
C471        O474   1.264       .  A
Cd472       O477   2.472       .  S
Cd472       O473   2.454       .  S
Cd472       O476   2.469       .  S
Cd472       O474   2.461       .  S
C475        C488   1.464       .  S
C475        O479   1.263       .  A
O480        C483   1.265       .  A
O480       Cd485   2.456       .  S
C481        O490   1.266       .  A
C481        O486   1.265       .  A
O482        C488   1.265       .  A
O482       Cd485   2.469       .  S
C483        O491   1.266       .  A
C484        O489   1.265       .  A
C484        O487   1.264       .  A
Cd485       O492   2.462       .  S
Cd485       O491   2.472       .  S
Cd485       O490   2.473       .  S
Cd485       O486   2.453       .  S
Cd485       O489   2.469       .  S
Cd485       O487   2.461       .  S
C488        O492   1.264       .  A
O493        C496   1.265       .  A
C494        C530   1.479       .  S
C494        O503   1.266   1_545  A
C494        O499   1.265       .  A
O495        C501   1.265       .  A
C496        O504   1.266       .  A
C497        C514   1.464       .  S
C497        O502   1.265       .  A
C497        O500   1.264       .  A
Cd498       O503   2.474       .  S
Cd498       O499   2.456   1_565  S
Cd498       O502   2.469       .  S
Cd498       O500   2.461       .  S
C501        C510   1.464       .  S
C501        O505   1.263       .  A
O506        C509   1.265       .  A
O506       Cd511   2.456       .  S
C507        O516   1.266       .  A
C507        O512   1.265       .  A
O508        C514   1.265       .  A
O508       Cd511   2.469       .  S
C509        O517   1.266       .  A
C510        O515   1.265       .  A
C510        O513   1.264       .  A
Cd511       O518   2.462       .  S
Cd511       O517   2.472       .  S
Cd511       O516   2.473       .  S
Cd511       O512   2.453       .  S
Cd511       O515   2.469       .  S
Cd511       O513   2.462       .  S
C514        O518   1.264       .  A
C519        C524   1.403       .  A
C519        C537   1.485       .  S
C520        C631   1.403       .  A
C520        C521   1.405       .  A
C520        H525   1.084       .  S
C521        C634   1.406       .  A
C522        C523   1.406       .  A
C522        H526   1.084       .  S
C523        C524   1.405       .  A
C524        H527   1.083       .  S
C528        C529   1.403       .  A
C528        C540   1.485       .  S
C529        C530   1.405       .  A
C529        H534   1.084       .  S
C530        C531   1.406   1_545  A
C531        H535   1.084       .  S
C532        C643   1.406       .  A
C532        C533   1.405       .  A
C533        C640   1.403   1_565  A
C533        H536   1.083       .  S
C538        C649   1.404       .  A
C538        C539   1.399       .  A
C538        H547   1.084       .  S
C539        S543   1.804       .  S
C540        C541   1.404   1_545  A
C541        C542   1.399       .  A
C541        H548   1.084       .  S
C542        S544   1.804       .  S
S543        H546   1.406       .  S
S544        H545   1.406       .  S
C549        C662   1.402       .  A
C549        C554   1.412       .  A
C550        C551   1.400       .  A
C550        H559   1.084       .  S
C551        S555   1.804   1_455  S
C552        C663   1.412   1_655  A
C552        C553   1.402   1_655  A
C553        C554   1.400       .  A
C553        H560   1.084   1_455  S
C554        S556   1.804       .  S
S555        H558   1.405       .  S
S556        H557   1.405       .  S
C561        C562   1.399       .  A
C561        C664   1.474       .  S
C562        C563   1.405       .  A
C562        H567   1.084       .  S
C563        C619   1.478       .  S
C564        C565   1.407       .  A
C564        H568   1.084       .  S
C565        C566   1.405       .  A
C565        C621   1.479       .  S
C566        H569   1.084       .  S
C570        C571   1.400   1_554  A
C570        C661   1.474       .  S
C571        C572   1.405       .  A
C571        H576   1.084       .  S
C572        C573   1.407   1_556  A
C572        C595   1.479       .  S
C573        H577   1.084       .  S
C574        C575   1.405       .  A
C574        C593   1.478       .  S
C575        H578   1.084       .  S
O579        C582   1.265       .  A
C580        C635   1.479       .  S
C580        O589   1.266       .  A
C580        O585   1.265       .  A
O581        C587   1.265       .  A
C582        O590   1.266   1_565  A
C583        C596   1.464       .  S
C583        O588   1.265       .  A
C583        O586   1.264       .  A
Cd584       O589   2.472       .  S
Cd584       O585   2.454       .  S
Cd584       O588   2.469       .  S
Cd584       O586   2.461       .  S
C587        C600   1.464       .  S
C587        O591   1.263       .  A
O592        C595   1.265       .  A
O592       Cd597   2.456       .  S
C593        O602   1.266       .  A
C593        O598   1.265       .  A
O594        C600   1.265       .  A
O594       Cd597   2.469       .  S
C595        O603   1.266       .  A
C596        O601   1.265       .  A
C596        O599   1.264       .  A
Cd597       O604   2.462       .  S
Cd597       O603   2.472       .  S
Cd597       O602   2.473       .  S
Cd597       O598   2.453       .  S
Cd597       O601   2.469       .  S
Cd597       O599   2.461       .  S
C600        O604   1.264       .  A
O605        C608   1.265       .  A
C606        C642   1.479       .  S
C606        O615   1.266   1_545  A
C606        O611   1.265       .  A
O607        C613   1.265       .  A
C608        O616   1.266       .  A
C609        C626   1.464       .  S
C609        O614   1.265       .  A
C609        O612   1.264       .  A
Cd610       O615   2.474       .  S
Cd610       O611   2.456   1_565  S
Cd610       O614   2.469       .  S
Cd610       O612   2.461       .  S
C613        C622   1.464       .  S
C613        O617   1.263       .  A
O618        C621   1.265       .  A
O618       Cd623   2.456       .  S
C619        O628   1.266       .  A
C619        O624   1.265       .  A
O620        C626   1.265       .  A
O620       Cd623   2.469       .  S
C621        O629   1.266       .  A
C622        O627   1.265       .  A
C622        O625   1.264       .  A
Cd623       O630   2.462       .  S
Cd623       O629   2.472       .  S
Cd623       O628   2.473       .  S
Cd623       O624   2.453       .  S
Cd623       O627   2.469       .  S
Cd623       O625   2.462       .  S
C626        O630   1.264       .  A
C631        C636   1.403       .  A
C631        C649   1.485       .  S
C632        C633   1.405       .  A
C632        H637   1.084       .  S
C634        C635   1.406       .  A
C634        H638   1.084       .  S
C635        C636   1.405       .  A
C636        H639   1.083       .  S
C640        C641   1.403       .  A
C640        C652   1.485       .  S
C641        C642   1.405       .  A
C641        H646   1.084       .  S
C642        C643   1.406   1_545  A
C643        H647   1.084       .  S
C644        C645   1.405       .  A
C645        H648   1.083       .  S
C650        C651   1.399       .  A
C650        H659   1.084       .  S
C651        S655   1.804       .  S
C652        C653   1.404   1_545  A
C653        C654   1.399       .  A
C653        H660   1.084       .  S
C654        S656   1.804       .  S
S655        H658   1.406       .  S
S656        H657   1.406       .  S
C661        C666   1.412   1_554  A
C662        C663   1.400       .  A
C662        H671   1.084       .  S
C663        S667   1.804   1_455  S
C664        C665   1.402   1_655  A
C665        C666   1.400       .  A
C665        H672   1.084   1_455  S
C666        S668   1.804       .  S
S667        H670   1.405       .  S
S668        H669   1.405   1_556  S
