geometry optimzed in LAMMPS
_audit_creation_date              2020-11-30 
_audit_creation_method            'lammps2cif' 
_symmetry_space_group_name_H-M    'P1' 
_symmetry_Int_Tables_number       1 
_symmetry_cell_setting            triclinic 
loop_ 
_symmetry_equiv_pos_as_xyz 
  x,y,z 
_cell_length_a                    23.91512095 
_cell_length_b                    23.976696906075464 
_cell_length_c                    47.42045102590254 
_cell_angle_alpha                 90.8215873726676 
_cell_angle_beta                  90.07171473119402 
_cell_angle_gamma                 90.36290032496244 
loop_ 
_atom_site_label 
_atom_site_type_symbol 
_atom_site_fract_x 
_atom_site_fract_y 
_atom_site_fract_z 
_atom_site_charge 
C1          C  0.32398335  0.50390477  0.22898094     0.86600
C2          C  0.31654067  0.55630564  0.21097439    -0.53600
C3          C  0.26927204  0.55605427  0.19489690     0.09500
C4          C  0.23239208  0.50397437  0.19870749     0.20500
C5          C  0.26924419  0.50131901  0.24661904    -0.54400
C6          C  0.22053892  0.50174568  0.23074510     0.09600
C7          C  0.31859754  0.45461564  0.20817128    -0.53900
C8          C  0.27108891  0.45435151  0.19237140     0.10200
H9          H  0.34739410  0.58969038  0.21013573     0.14700
H10         H  0.19496372  0.50451878  0.18498414     0.00400
H11         H  0.26901453  0.49961024  0.26939241     0.15000
H12         H  0.35060145  0.42291583  0.20583861     0.14800
C13         C  0.82417481  0.50004399  0.31203934     0.86600
C14         C  0.81938532  0.45045115  0.33206505    -0.53600
C15         C  0.77197365  0.44955382  0.34787695     0.09500
C16         C  0.73281420  0.49880689  0.34234466     0.20500
C17         C  0.76946724  0.49658520  0.29423121    -0.54400
C18         C  0.72080865  0.49601535  0.31021506     0.09600
C19         C  0.81586524  0.55221301  0.33079707    -0.53900
C20         C  0.76896702  0.55134171  0.34695355     0.10200
H21         H  0.85173211  0.41907420  0.33389452     0.14700
H22         H  0.69566615  0.49906318  0.35620639     0.00400
H23         H  0.76934259  0.49451367  0.27141414     0.15000
H24         H  0.84619960  0.58609142  0.33207577     0.14800
O25         O  0.70962419  0.76166736  0.39547421    -0.57700
C26         C  0.75804610  0.59407393  0.36907973     0.74900
O27         O  0.78775459  0.68972987  0.46162901    -0.58900
C28         C  0.75368299  0.78921524  0.40123827     0.74900
C29         C  0.64508812  0.64712905  0.44893553     0.77300
Cd30       Cd  0.74373204  0.67161533  0.41615065     1.37500
O31         O  0.79159632  0.63410254  0.37379165    -0.57700
O32         O  0.64307441  0.68019856  0.42832533    -0.56500
C33         C  0.82610726  0.65387587  0.45937977     0.77200
O34         O  0.69161908  0.62417932  0.45335684    -0.58900
O35         O  0.71595601  0.59143786  0.38507780    -0.57300
O36         O  0.79266810  0.76198209  0.41247963    -0.57300
O37         O  0.82740355  0.62591750  0.43651523    -0.56500
O38         O  0.20944240  0.76322481  0.15054119    -0.57700
C39         C  0.25783861  0.59870261  0.17348274     0.74900
O40         O  0.18329460  0.62442804  0.09212501    -0.58900
C41         C  0.24466141  0.79452569  0.13852411     0.74900
C42         C  0.32865510  0.65121619  0.08702081     0.77300
Cd43       Cd  0.24167507  0.67448816  0.12725830     1.37500
O44         O  0.28774490  0.64208412  0.17102475    -0.57700
O45         O  0.33467724  0.64024221  0.11287948    -0.56500
C46         C  0.13806803  0.64821900  0.09883425     0.77200
O47         O  0.28246448  0.67244933  0.07999347    -0.58900
O48         O  0.21869127  0.59245794  0.15581851    -0.57300
O49         O  0.27921947  0.77023033  0.12249134    -0.57300
O50         O  0.14050475  0.68253058  0.11936249    -0.56500
O51         O  0.72070706  0.23736552  0.38851253    -0.57700
C52         C  0.76136244  0.40649171  0.36926897     0.74900
O53         O  0.68096121  0.37457293  0.44618256    -0.58900
C54         C  0.75896660  0.20861463  0.39958304     0.74900
C55         C  0.82517899  0.35139249  0.45858670     0.77300
Cd56       Cd  0.74583893  0.32671166  0.41416123     1.37500
O57         O  0.79391059  0.36572571  0.37255648    -0.57700
O58         O  0.83427310  0.36502164  0.43330370    -0.56500
C59         C  0.63908451  0.34355955  0.44107287     0.77200
O60         O  0.77944724  0.32643387  0.46325208    -0.58900
O61         O  0.71994138  0.40897082  0.38569413    -0.57300
O62         O  0.79190463  0.23489527  0.41593690    -0.57300
O63         O  0.64579803  0.30564201  0.42250912    -0.56500
O64         O  0.20184355  0.24318339  0.14282944    -0.57700
C65         C  0.26025265  0.41174137  0.17018115     0.74900
O66         O  0.28467814  0.30713474  0.07862871    -0.58900
C67         C  0.24610069  0.21484002  0.14060378     0.74900
C68         C  0.14092798  0.35736939  0.09547802     0.77300
Cd69       Cd  0.24293317  0.33167815  0.12448235     1.37500
O70         O  0.29414998  0.37256336  0.16517266    -0.57700
O71         O  0.14017276  0.32946680  0.11796277    -0.56500
C72         C  0.32309837  0.34366168  0.07921005     0.77200
O73         O  0.18835361  0.37387860  0.08713850    -0.58900
O74         O  0.21720607  0.41298335  0.15480540    -0.57300
O75         O  0.28921856  0.24134867  0.13299159    -0.57300
O76         O  0.32473522  0.37513762  0.10089151    -0.56500
C77         C  0.08982294  0.36838731  0.07901198    -0.01200
C78         C  0.03732566  0.35022152  0.08831080    -0.09200
C79         C  0.99031028  0.35440720  0.07093447    -0.18000
C80         C  0.99478624  0.37600336  0.04338130     0.04400
C81         C  0.04772767  0.39694679  0.03475927     0.18500
C82         C  0.09414796  0.39372876  0.05268180    -0.19500
C83         C  0.05462827  0.41791873  0.50797216    -0.20700
C84         C  0.01096278  0.41661371  0.48869832    -0.19300
C85         C  0.95914283  0.39372605  0.49598661     0.19900
C86         C  0.94971069  0.37499038  0.02355367     0.02100
C87         C  0.89622143  0.35290690  0.02976921    -0.14000
C88         C  0.85546208  0.34712058  0.00879462    -0.11700
C89         C  0.86623905  0.36276245  0.48130933     0.01600
C90         C  0.91754462  0.38829384  0.47523050    -0.23900
H91         H  0.03283079  0.33123245  0.10877574     0.09600
H92         H  0.95153750  0.33863067  0.07931581     0.13200
H93         H  0.13454956  0.40847258  0.04541351     0.11900
H94         H  0.09481258  0.43435851  0.50138809     0.13100
H95         H  0.01828432  0.43215316  0.46767012     0.12100
H96         H  0.88503833  0.33841374  0.05042062     0.09200
H97         H  0.81566266  0.32826036  0.01415874     0.12500
H98         H  0.92600465  0.40212881  0.45397945     0.14300
C99         C  0.36399563  0.34855374  0.05590558    -0.01200
C100        C  0.36149763  0.31147063  0.03283039    -0.09200
C101        C  0.40163650  0.31326326  0.01150822    -0.18000
C102        C  0.44615346  0.35234052  0.01261736     0.04400
C103        C  0.44699045  0.39167908  0.03537764     0.18500
C104        C  0.40626063  0.38936017  0.05672051    -0.19500
C105        C  0.48917323  0.43234562  0.03703379    -0.20700
C106        C  0.53205570  0.43327537  0.01727356    -0.19300
C107        C  0.53416082  0.39317560  0.99555002     0.19900
C108        C  0.49071087  0.35276533  0.99251928     0.00100
C109        C  0.49536503  0.31297412  0.47046348    -0.14000
C110        C  0.54231560  0.31168245  0.45297245    -0.11700
C111        C  0.58621171  0.34988381  0.45695112     0.01600
C112        C  0.58075669  0.39185101  0.97754583    -0.23900
H113        H  0.32874935  0.28012784  0.03142438     0.09600
H114        H  0.39729679  0.28278281  0.49491862     0.13200
H115        H  0.40812863  0.41879412  0.07427797     0.11900
H116        H  0.48961018  0.46302989  0.05405008     0.13100
H117        H  0.56470834  0.46459627  0.01949636     0.12100
H118        H  0.46402515  0.28137493  0.46644901     0.09200
H119        H  0.54501436  0.27940510  0.43682356     0.12500
H120        H  0.61428199  0.42199067  0.98064224     0.14300
C121        C  0.24504969  0.85612296  0.14230152    -0.01200
C122        C  0.19875077  0.88402090  0.15364915    -0.09200
C123        C  0.19777959  0.94240077  0.15550103    -0.18000
C124        C  0.24360914  0.97496807  0.14617141     0.04400
C125        C  0.29085756  0.94624137  0.13517203     0.18500
C126        C  0.29104659  0.88766847  0.13326256    -0.19500
C127        C  0.33754853  0.97608189  0.12577173    -0.20700
C128        C  0.33819248  0.03401817  0.12663106    -0.19300
C129        C  0.29208436  0.06371252  0.13682051     0.19900
C130        C  0.24417005  0.03481118  0.14693574     0.02100
C131        C  0.19873285  0.06722584  0.15683558    -0.14000
C132        C  0.20014019  0.12558825  0.15568620    -0.11700
C133        C  0.24697844  0.15366309  0.14504639     0.01600
C134        C  0.29324889  0.12231472  0.13624610    -0.23900
H135        H  0.16253282  0.86064537  0.16061789     0.09600
H136        H  0.16044883  0.96079901  0.16414084     0.13200
H137        H  0.32715240  0.86653818  0.12449472     0.11900
H138        H  0.37373949  0.95443833  0.11745640     0.13100
H139        H  0.37483175  0.05579181  0.11891380     0.12100
H140        H  0.16109081  0.04869804  0.16504766     0.09200
H141        H  0.16387419  0.14880480  0.16267555     0.12500
H142        H  0.32965415  0.14350556  0.12785487     0.14300
C143        C  0.75936139  0.85017194  0.39628688    -0.01200
C144        C  0.80779037  0.87853659  0.40529112    -0.09200
C145        C  0.81213370  0.93652376  0.40360051    -0.18000
C146        C  0.76782481  0.96865270  0.39279222     0.04400
C147        C  0.72000342  0.93961077  0.38217042     0.18500
C148        C  0.71603946  0.88100876  0.38413518    -0.19500
C149        C  0.67595406  0.96939912  0.37019769    -0.20700
C150        C  0.67756876  0.02745203  0.36929303    -0.19300
C151        C  0.72274574  0.05743451  0.38086285     0.19900
C152        C  0.76871958  0.02845049  0.39266509     0.02100
C153        C  0.81252966  0.06067454  0.40480900    -0.14000
C154        C  0.80987109  0.11887085  0.40602590    -0.11700
C155        C  0.76400324  0.14734618  0.39491898     0.01600
C156        C  0.72121080  0.11627070  0.38167933    -0.23900
H157        H  0.84229123  0.85588723  0.41438705     0.09600
H158        H  0.85061887  0.95497179  0.41117258     0.13200
H159        H  0.67862318  0.85956075  0.37676275     0.11900
H160        H  0.63961653  0.94765899  0.36175316     0.13100
H161        H  0.64243159  0.04913265  0.36017223     0.12100
H162        H  0.84866572  0.04214960  0.41440801     0.09200
H163        H  0.84352910  0.14168041  0.41636814     0.12500
H164        H  0.68534720  0.13775240  0.37314205     0.14300
C165        C  0.37339537  0.64106503  0.06614719    -0.01200
C166        C  0.42397506  0.61667732  0.07409370    -0.09200
C167        C  0.46764197  0.61073449  0.05472584    -0.18000
C168        C  0.46217489  0.62990082  0.02675232     0.04400
C169        C  0.41023673  0.65352194  0.01875789     0.18500
C170        C  0.36643226  0.65810199  0.03825106    -0.19500
C171        C  0.40298232  0.67448845  0.49148316    -0.20700
C172        C  0.44700961  0.67498781  0.47244311    -0.19300
C173        C  0.49912989  0.65350453  0.47985689     0.19900
C174        C  0.50689619  0.62869996  0.00677556     0.02100
C175        C  0.55973111  0.60533314  0.01259483    -0.14000
C176        C  0.60360422  0.60952845  0.99330686    -0.11700
C177        C  0.59663834  0.63723277  0.46761498     0.01600
C178        C  0.54378080  0.65782891  0.46079200    -0.23900
H179        H  0.43023518  0.60292701  0.09552564     0.09600
H180        H  0.50558460  0.59252307  0.06251591     0.13200
H181        H  0.32738056  0.67690396  0.03188524     0.11900
H182        H  0.36335625  0.69218824  0.48523008     0.13100
H183        H  0.44045811  0.69309829  0.45189502     0.12100
H184        H  0.56865448  0.58414985  0.03194736     0.09200
H185        H  0.64392258  0.59253524  0.99891506     0.12500
H186        H  0.53762475  0.67837952  0.44081486     0.14300
C187        C  0.86693047  0.64594198  0.48237574    -0.01200
C188        C  0.86211052  0.67771530  0.00719325    -0.09200
C189        C  0.90151016  0.67351503  0.02865699    -0.18000
C190        C  0.94768715  0.63739032  0.02592067     0.04400
C191        C  0.95126970  0.60340038  0.50121100     0.18500
C192        C  0.91088386  0.60776947  0.47974947    -0.19500
C193        C  0.99603983  0.56664327  0.49765044    -0.20700
C194        C  0.03885988  0.56492305  0.51751230    -0.19300
C195        C  0.03795216  0.59997768  0.04131129     0.19900
C196        C  0.99154673  0.63550266  0.04633102     0.02100
C197        C  0.99228035  0.66945716  0.07096957    -0.14000
C198        C  0.03882154  0.67117830  0.08866024    -0.11700
C199        C  0.08590665  0.63883418  0.08265816     0.01600
C200        C  0.08433674  0.60158636  0.05956716    -0.23900
H201        H  0.82806535  0.70686253  0.00998007     0.09600
H202        H  0.89503131  0.70002472  0.04685707     0.13200
H203        H  0.91449319  0.58245228  0.46071322     0.11900
H204        H  0.99882961  0.54030549  0.47895008     0.13100
H205        H  0.07395632  0.53753328  0.51366705     0.12100
H206        H  0.95835808  0.69657463  0.07678793     0.09200
H207        H  0.03867790  0.69971926  0.10657232     0.12500
H208        H  0.12036649  0.57578382  0.05497059     0.14300
C209        C  0.16198292  0.50196596  0.24293576    -0.01200
C210        C  0.15241262  0.51880605  0.27101529    -0.09200
C211        C  0.09842176  0.51934218  0.28248367    -0.18000
C212        C  0.05102568  0.50376405  0.26619473     0.04400
C213        C  0.05994020  0.48917578  0.23748204     0.18500
C214        C  0.11479070  0.48715422  0.22637898    -0.19500
C215        C  0.01391352  0.47687785  0.22000334    -0.20700
C216        C  0.95930972  0.47903752  0.23043643    -0.19300
C217        C  0.94906631  0.49148081  0.25893231     0.19900
C218        C  0.99514944  0.50268957  0.27728571     0.02100
C219        C  0.98353821  0.51071321  0.30615813    -0.14000
C220        C  0.92888516  0.50902057  0.31628027    -0.11700
C221        C  0.88255594  0.50091358  0.29825636     0.01600
C222        C  0.89330768  0.49181808  0.26934001    -0.23900
H223        H  0.18661448  0.53259672  0.28436318     0.09600
H224        H  0.09499115  0.53354633  0.30408219     0.13200
H225        H  0.12005210  0.47329855  0.20476926     0.11900
H226        H  0.02014055  0.46613395  0.19795931     0.13100
H227        H  0.92487343  0.46992791  0.21618449     0.12100
H228        H  0.01605712  0.51684255  0.32168298     0.09200
H229        H  0.92263799  0.51430912  0.33878253     0.12500
H230        H  0.85892556  0.48358988  0.25499438     0.14300
C231        C  0.66181271  0.49358235  0.29850849    -0.01200
C232        C  0.61657651  0.47715577  0.31562683    -0.09200
C233        C  0.56117298  0.47837655  0.30593300    -0.18000
C234        C  0.54832768  0.49461774  0.27819499     0.04400
C235        C  0.59402497  0.50841167  0.26031955     0.18500
C236        C  0.64959209  0.50866228  0.27060972    -0.19500
C237        C  0.58404052  0.52186182  0.23214565    -0.20700
C238        C  0.52991373  0.52178753  0.22132356    -0.19300
C239        C  0.48392473  0.50996837  0.23855837     0.19900
C240        C  0.49210421  0.49697101  0.26735276     0.02100
C241        C  0.44359950  0.48751490  0.28389107    -0.14000
C242        C  0.38949486  0.49080941  0.27224838    -0.11700
C243        C  0.38159740  0.50289106  0.24359774     0.01600
C244        C  0.42973165  0.51146660  0.22701480    -0.23900
H245        H  0.62326866  0.46228532  0.33673091     0.09600
H246        H  0.52924443  0.46531406  0.32048729     0.13200
H247        H  0.68312743  0.52135373  0.25676694     0.11900
H248        H  0.61845280  0.53205171  0.21825504     0.13100
H249        H  0.52392552  0.53188831  0.19932500     0.12100
H250        H  0.44621065  0.47808908  0.30600476     0.09200
H251        H  0.35423811  0.48266412  0.28581973     0.12500
H252        H  0.42483382  0.51982670  0.20473847     0.14300
C253        C  0.32395547  0.50437700  0.72899442     0.86600
C254        C  0.31655836  0.55668945  0.71092869    -0.53600
C255        C  0.26929801  0.55639654  0.69485094     0.09500
C256        C  0.23237927  0.50435769  0.69871615     0.20500
C257        C  0.26921974  0.50189355  0.74663514    -0.54400
C258        C  0.22052062  0.50226566  0.73075953     0.09600
C259        C  0.31854351  0.45498750  0.70824722    -0.53900
C260        C  0.27104908  0.45468571  0.69243847     0.10200
H261        H  0.34744696  0.59003740  0.71004884     0.14700
H262        H  0.19495683  0.50486700  0.68498806     0.00400
H263        H  0.26897950  0.50024596  0.76940886     0.15000
H264        H  0.35053070  0.42326012  0.70595362     0.14800
C265        C  0.82413849  0.50047246  0.81201192     0.86600
C266        C  0.81939196  0.45080543  0.83199415    -0.53600
C267        C  0.77196647  0.44980530  0.84779208     0.09500
C268        C  0.73277944  0.49905397  0.84230386     0.20500
C269        C  0.76943859  0.49702199  0.79419398    -0.54400
C270        C  0.72076626  0.49637467  0.81017204     0.09600
C271        C  0.81576444  0.55257918  0.83080463    -0.53900
C272        C  0.76886788  0.55160549  0.84695384     0.10200
H273        H  0.85176927  0.41945460  0.83380309     0.14700
H274        H  0.69568361  0.49924726  0.85619227     0.00400
H275        H  0.76934639  0.49506089  0.77137639     0.15000
H276        H  0.84604417  0.58650381  0.83210377     0.14800
O277        O  0.70925576  0.76187038  0.89573821    -0.57700
C278        C  0.75786229  0.59427776  0.86909248     0.74900
O279        O  0.78775965  0.68989187  0.96159202    -0.58900
C280        C  0.75344096  0.78931032  0.90138417     0.74900
C281        C  0.64483565  0.64700779  0.94899502     0.77300
Cd282      Cd  0.74345516  0.67165261  0.91620746     1.37500
O283        O  0.79135810  0.63433660  0.87383189    -0.57700
O284        O  0.64271158  0.67988580  0.92830872    -0.56500
C285        C  0.82590504  0.65380735  0.95938291     0.77200
O286        O  0.69147227  0.62433506  0.95349878    -0.58900
O287        O  0.71575512  0.59155601  0.88507493    -0.57300
O288        O  0.79251808  0.76194983  0.91246327    -0.57300
O289        O  0.82694753  0.62563199  0.93658180    -0.56500
O290        O  0.20947072  0.76337895  0.65035225    -0.57700
C291        C  0.25791980  0.59896118  0.67339272     0.74900
O292        O  0.18336750  0.62456501  0.59204299    -0.58900
C293        C  0.24479390  0.79468092  0.63841398     0.74900
C294        C  0.32871327  0.65126799  0.58685986     0.77300
Cd295      Cd  0.24180219  0.67462776  0.62713210     1.37500
O296        O  0.28776644  0.64239065  0.67095005    -0.57700
O297        O  0.33458847  0.63992986  0.61268469    -0.56500
C298        C  0.13812252  0.64822759  0.59883585     0.77200
O299        O  0.28268791  0.67290648  0.57987400    -0.58900
O300        O  0.21887983  0.59259650  0.65567982    -0.57300
O301        O  0.27945996  0.77038405  0.62244038    -0.57300
O302        O  0.14059189  0.68250589  0.61937539    -0.56500
O303        O  0.72128826  0.23759098  0.88833105    -0.57700
C304        C  0.76135115  0.40667545  0.86915072     0.74900
O305        O  0.68064624  0.37497104  0.94591477    -0.58900
C306        C  0.75916089  0.20878160  0.89969553     0.74900
C307        C  0.82525524  0.35218396  0.95841795     0.77300
Cd308      Cd  0.74585006  0.32698066  0.91408096     1.37500
O309        O  0.79393073  0.36593265  0.87244382    -0.57700
O310        O  0.83437802  0.36549438  0.93309262    -0.56500
C311        C  0.63887888  0.34377410  0.94086724     0.77200
O312        O  0.77948766  0.32734290  0.96315221    -0.58900
O313        O  0.71989172  0.40909743  0.88555322    -0.57300
O314        O  0.79168783  0.23503264  0.91627128    -0.57300
O315        O  0.64579114  0.30565295  0.92243089    -0.56500
O316        O  0.20205645  0.24335182  0.64317391    -0.57700
C317        C  0.26022835  0.41199947  0.67028518     0.74900
O318        O  0.28472184  0.30719420  0.57879695    -0.58900
C319        C  0.24628766  0.21499393  0.64085399     0.74900
C320        C  0.14089111  0.35710022  0.59568231     0.77300
Cd321      Cd  0.24299609  0.33177197  0.62465857     1.37500
O322        O  0.29404757  0.37270476  0.66538063    -0.57700
O323        O  0.14026880  0.32907510  0.61812717    -0.56500
C324        C  0.32320262  0.34365606  0.57939638     0.77200
O325        O  0.18823259  0.37391989  0.58737616    -0.58900
O326        O  0.21728668  0.41328979  0.65483679    -0.57300
O327        O  0.28933871  0.24147775  0.63312662    -0.57300
O328        O  0.32484562  0.37513593  0.60107536    -0.56500
C329        C  0.08974148  0.36790404  0.57921793    -0.01200
C330        C  0.03732175  0.34947069  0.58849714    -0.09200
C331        C  0.99029507  0.35347475  0.57111376    -0.18000
C332        C  0.99469053  0.37515779  0.54357582     0.04400
C333        C  0.04755187  0.39634054  0.53497307     0.18500
C334        C  0.09397161  0.39329966  0.55290072    -0.19500
C335        C  0.05487038  0.41843922  0.00774307    -0.20700
C336        C  0.01119091  0.41724628  0.98847108    -0.19300
C337        C  0.95929136  0.39455313  0.99577523     0.19900
C338        C  0.94961963  0.37403767  0.52374577     0.02100
C339        C  0.89619029  0.35177292  0.52993952    -0.14000
C340        C  0.85542916  0.34598683  0.50896013    -0.11700
C341        C  0.86631923  0.36372105  0.98112199     0.01600
C342        C  0.91767746  0.38913757  0.97501764    -0.23900
H343        H  0.03290424  0.33042143  0.60895146     0.09600
H344        H  0.95158467  0.33750169  0.57947538     0.13200
H345        H  0.13431277  0.40823541  0.54564583     0.11900
H346        H  0.09511394  0.43470982  0.00114467     0.13100
H347        H  0.01856607  0.43269531  0.96743012     0.12100
H348        H  0.88505602  0.33716883  0.55057802     0.09200
H349        H  0.81566500  0.32702812  0.51430259     0.12500
H350        H  0.92617428  0.40284643  0.95374879     0.14300
C351        C  0.36418110  0.34845796  0.55612487    -0.01200
C352        C  0.36171462  0.31134632  0.53306109    -0.09200
C353        C  0.40193610  0.31305370  0.51177734    -0.18000
C354        C  0.44650294  0.35207318  0.51291422     0.04400
C355        C  0.44734961  0.39139955  0.53567929     0.18500
C356        C  0.40652824  0.38917563  0.55697816    -0.19500
C357        C  0.48962406  0.43196448  0.53738338    -0.20700
C358        C  0.53255907  0.43283297  0.51765260    -0.19300
C359        C  0.53460196  0.39279516  0.49589918     0.19900
C360        C  0.49108176  0.35246895  0.49283098     0.00100
C361        C  0.49507718  0.31318604  0.97019299    -0.14000
C362        C  0.54207283  0.31186448  0.95272756    -0.11700
C363        C  0.58591871  0.35013748  0.95668172     0.01600
C364        C  0.58117428  0.39147766  0.47788237    -0.23900
H365        H  0.32892561  0.28004958  0.53163514     0.09600
H366        H  0.39697776  0.28301534  0.99464066     0.13200
H367        H  0.40838867  0.41861332  0.57453450     0.11900
H368        H  0.49008127  0.46262428  0.55441094     0.13100
H369        H  0.56527106  0.46408467  0.51990664     0.12100
H370        H  0.46379205  0.28151763  0.96621019     0.09200
H371        H  0.54485350  0.27950391  0.93662546     0.12500
H372        H  0.61474994  0.42155418  0.48099996     0.14300
C373        C  0.24518431  0.85627698  0.64222762    -0.01200
C374        C  0.19891000  0.88414202  0.65362510    -0.09200
C375        C  0.19796441  0.94251573  0.65555574    -0.18000
C376        C  0.24379485  0.97511398  0.64625585     0.04400
C377        C  0.29101594  0.94642201  0.63520140     0.18500
C378        C  0.29117722  0.88785445  0.63321001    -0.19500
C379        C  0.33771393  0.97629342  0.62583432    -0.20700
C380        C  0.33838568  0.03422662  0.62677406    -0.19300
C381        C  0.29229390  0.06388905  0.63700588     0.19900
C382        C  0.24437959  0.03495708  0.64709810     0.02100
C383        C  0.19896102  0.06734581  0.65704456    -0.14000
C384        C  0.20037133  0.12571543  0.65594108    -0.11700
C385        C  0.24719616  0.15381887  0.64530373     0.01600
C386        C  0.29346490  0.12249293  0.63648150    -0.23900
H387        H  0.16269701  0.86074654  0.66058367     0.09600
H388        H  0.16065681  0.96088635  0.66423613     0.13200
H389        H  0.32726451  0.86675552  0.62440378     0.11900
H390        H  0.37388774  0.95467824  0.61748141     0.13100
H391        H  0.37502745  0.05602539  0.61907719     0.12100
H392        H  0.16132419  0.04879236  0.66524804     0.09200
H393        H  0.16410715  0.14891302  0.66294961     0.12500
H394        H  0.32986494  0.14370424  0.62809808     0.14300
C395        C  0.75917085  0.85028273  0.89647939    -0.01200
C396        C  0.80766453  0.87857759  0.90545670    -0.09200
C397        C  0.81206714  0.93657135  0.90379308    -0.18000
C398        C  0.76776969  0.96876799  0.89302531     0.04400
C399        C  0.71990151  0.93979040  0.88241168     0.18500
C400        C  0.71585323  0.88119447  0.88437563    -0.19500
C401        C  0.67590756  0.96963331  0.87042528    -0.20700
C402        C  0.67764919  0.02767606  0.86946965    -0.19300
C403        C  0.72285952  0.05760323  0.88104103     0.19900
C404        C  0.76873674  0.02856967  0.89290500     0.02100
C405        C  0.81250396  0.06075309  0.90512080    -0.14000
C406        C  0.80991134  0.11896550  0.90631749    -0.11700
C407        C  0.76417800  0.14748732  0.89509687     0.01600
C408        C  0.72143230  0.11644075  0.88180450    -0.23900
H409        H  0.84217010  0.85586747  0.91450868     0.09600
H410        H  0.85060385  0.95497714  0.91132772     0.13200
H411        H  0.67839598  0.85980236  0.87701481     0.11900
H412        H  0.63953585  0.94794220  0.86198634     0.13100
H413        H  0.64257229  0.04939805  0.86031607     0.12100
H414        H  0.84852413  0.04217454  0.91480627     0.09200
H415        H  0.84351356  0.14175469  0.91671745     0.12500
H416        H  0.68565367  0.13795502  0.87319895     0.14300
C417        C  0.37345338  0.64108341  0.56598665    -0.01200
C418        C  0.42402337  0.61668800  0.57394493    -0.09200
C419        C  0.46772931  0.61078938  0.55459671    -0.18000
C420        C  0.46231067  0.62999653  0.52662904     0.04400
C421        C  0.41037608  0.65360320  0.51861652     0.18500
C422        C  0.36653024  0.65813986  0.53809048    -0.19500
C423        C  0.40279016  0.67435821  0.99161852    -0.20700
C424        C  0.44676566  0.67477578  0.97254792    -0.19300
C425        C  0.49889350  0.65328519  0.97994274     0.19900
C426        C  0.50707694  0.62885173  0.50667729     0.02100
C427        C  0.55989696  0.60546006  0.51250742    -0.14000
C428        C  0.60379956  0.60966787  0.49323686    -0.11700
C429        C  0.59639449  0.63704153  0.96767350     0.01600
C430        C  0.54350720  0.65756820  0.96085257    -0.23900
H431        H  0.43025909  0.60292818  0.59537681     0.09600
H432        H  0.50566975  0.59259461  0.56240072     0.13200
H433        H  0.32748271  0.67693464  0.53171274     0.11900
H434        H  0.36316016  0.69207122  0.98538088     0.13100
H435        H  0.44017298  0.69284242  0.95199304     0.12100
H436        H  0.56877739  0.58422380  0.53185027     0.09200
H437        H  0.64409855  0.59263176  0.49884662     0.12500
H438        H  0.53731034  0.67807681  0.94086735     0.14300
C439        C  0.86678117  0.64587073  0.98235508    -0.01200
C440        C  0.86224291  0.67780705  0.50720743    -0.09200
C441        C  0.90159306  0.67356834  0.52869362    -0.18000
C442        C  0.94771742  0.63736652  0.52598985     0.04400
C443        C  0.95124403  0.60345695  0.00113054     0.18500
C444        C  0.91078576  0.60776135  0.97969618    -0.19500
C445        C  0.99609574  0.56681347  0.99752910    -0.20700
C446        C  0.03896311  0.56515114  0.01736977    -0.19300
C447        C  0.03788578  0.59981604  0.54142891     0.19900
C448        C  0.99153689  0.63543119  0.54641861     0.02100
C449        C  0.99230055  0.66943317  0.57104056    -0.14000
C450        C  0.03884956  0.67115036  0.58872552    -0.11700
C451        C  0.08590430  0.63875973  0.58272817     0.01600
C452        C  0.08427127  0.60141989  0.55967892    -0.23900
H453        H  0.82823302  0.70700395  0.50996868     0.09600
H454        H  0.89511783  0.70010036  0.54688658     0.13200
H455        H  0.91439314  0.58247066  0.96065110     0.11900
H456        H  0.99890920  0.54052679  0.97881250     0.13100
H457        H  0.07411518  0.53784949  0.01349334     0.12100
H458        H  0.95841116  0.69660827  0.57683989     0.09200
H459        H  0.03875459  0.69975162  0.60661349     0.12500
H460        H  0.12027098  0.57556588  0.55509704     0.14300
C461        C  0.16197221  0.50249548  0.74295545    -0.01200
C462        C  0.15240085  0.51935988  0.77103237    -0.09200
C463        C  0.09840856  0.51991439  0.78249890    -0.18000
C464        C  0.05101318  0.50432914  0.76621045     0.04400
C465        C  0.05994129  0.48966462  0.73750767     0.18500
C466        C  0.11478874  0.48763798  0.72640710    -0.19500
C467        C  0.01393241  0.47728413  0.72003339    -0.20700
C468        C  0.95932796  0.47942658  0.73045922    -0.19300
C469        C  0.94906520  0.49196698  0.75894145     0.19900
C470        C  0.99512818  0.50329278  0.77729187     0.02100
C471        C  0.98348512  0.51146252  0.80615183    -0.14000
C472        C  0.92882887  0.50971668  0.81626681    -0.11700
C473        C  0.88252357  0.50145546  0.79824229     0.01600
C474        C  0.89330324  0.49227312  0.76933808    -0.23900
H475        H  0.18659962  0.53316029  0.78437963     0.09600
H476        H  0.09498219  0.53412689  0.80409604     0.13200
H477        H  0.12005438  0.47373755  0.70480499     0.11900
H478        H  0.02017464  0.46647305  0.69799840     0.13100
H479        H  0.92490532  0.47023213  0.71621195     0.12100
H480        H  0.01597971  0.51773737  0.82167589     0.09200
H481        H  0.92256327  0.51507588  0.83876401     0.12500
H482        H  0.85894081  0.48392478  0.75499669     0.14300
C483        C  0.66175540  0.49403881  0.79846909    -0.01200
C484        C  0.61644581  0.47809220  0.81565810    -0.09200
C485        C  0.56105548  0.47944895  0.80597762    -0.18000
C486        C  0.54826907  0.49528080  0.77817555     0.04400
C487        C  0.59400533  0.50853973  0.76022345     0.18500
C488        C  0.64958082  0.50871889  0.77050368    -0.19500
C489        C  0.58404574  0.52149944  0.73198392    -0.20700
C490        C  0.52990461  0.52143848  0.72117606    -0.19300
C491        C  0.48389207  0.51013405  0.73848559     0.19900
C492        C  0.49205525  0.49767169  0.76734323     0.02100
C493        C  0.44354865  0.48874364  0.78395427    -0.14000
C494        C  0.38945088  0.49194966  0.77231225    -0.11700
C495        C  0.38156420  0.50343660  0.74359771     0.01600
C496        C  0.42969252  0.51159349  0.72695496    -0.23900
H497        H  0.62302420  0.46347419  0.83681272     0.09600
H498        H  0.52908904  0.46676390  0.82059614     0.13200
H499        H  0.68314929  0.52100766  0.75659051     0.11900
H500        H  0.61848437  0.53127132  0.71803220     0.13100
H501        H  0.52392810  0.53112942  0.69912677     0.12100
H502        H  0.44614818  0.47980693  0.80612272     0.09200
H503        H  0.35419525  0.48423387  0.78594755     0.12500
H504        H  0.42477906  0.51957094  0.70464053     0.14300
loop_ 
_geom_bond_atom_site_label_1 
_geom_bond_atom_site_label_2 
_geom_bond_distance 
_geom_bond_site_symmetry_2 
_ccdc_geom_bond_type 
C1            C2   1.540       .  S
C1            C7   1.533       .  S
C1            C5   1.556       .  S
C1          C243   1.542       .  S
C2            H9   1.086       .  S
C2            C3   1.363       .  D
C3            C4   1.537       .  S
C3           C39   1.478       .  S
C4            C8   1.538       .  S
C4            C6   1.547       .  S
C4           H10   1.106       .  S
C5           H11   1.081       .  S
C5            C6   1.386       .  D
C6          C209   1.516       .  S
C7           H12   1.087       .  S
C7            C8   1.360       .  D
C8           C65   1.478       .  S
C13          C14   1.536       .  S
C13          C19   1.539       .  S
C13          C17   1.557       .  S
C13         C221   1.542       .  S
C14          H21   1.087       .  S
C14          C15   1.360       .  D
C15          C16   1.537       .  S
C15          C52   1.479       .  S
C16          C20   1.536       .  S
C16          C18   1.550       .  S
C16          H22   1.106       .  S
C17          H23   1.082       .  S
C17          C18   1.390       .  D
C18         C231   1.516       .  S
C19          H24   1.087       .  S
C19          C20   1.359       .  D
C20          C26   1.481       .  S
O25          C28   1.267       .  A
O25         Cd30   2.524       .  S
C26          O35   1.263       .  A
C26          O31   1.264       .  A
O27          C33   1.265       .  A
O27         Cd30   2.431       .  S
C28          O36   1.263       .  A
C28         C143   1.489       .  S
C29          O34   1.263       .  A
C29          O32   1.268       .  A
C29         C177   1.479       .  S
Cd30         O37   2.488       .  S
Cd30         O36   2.464       .  S
Cd30         O35   2.492       .  S
Cd30         O31   2.474       .  S
Cd30         O34   2.450       .  S
Cd30         O32   2.485       .  S
C33          O37   1.267       .  A
C33         C187   1.478       .  S
O38          C41   1.266       .  A
O38         Cd43   2.509       .  S
C39          O48   1.262       .  A
C39          O44   1.265       .  A
O40          C46   1.265       .  A
O40         Cd43   2.466       .  S
C41          O49   1.263       .  A
C41         C121   1.485       .  S
C42          O47   1.266       .  A
C42          O45   1.266       .  A
C42         C165   1.477       .  S
Cd43         O50   2.457       .  S
Cd43         O49   2.473       .  S
Cd43         O48   2.464       .  S
Cd43         O44   2.485       .  S
Cd43         O47   2.445       .  S
Cd43         O45   2.469       .  S
C46          O50   1.267       .  A
C46         C199   1.478       .  S
O51          C54   1.267       .  A
O51         Cd56   2.517       .  S
C52          O61   1.262       .  A
C52          O57   1.265       .  A
O53          C59   1.265       .  A
O53         Cd56   2.451       .  S
C54          O62   1.264       .  A
C54         C155   1.488       .  S
C55          O60   1.265       .  A
C55          O58   1.266       .  A
C55          C89   1.478       .  S
Cd56         O63   2.476       .  S
Cd56         O62   2.470       .  S
Cd56         O61   2.487       .  S
Cd56         O57   2.477       .  S
Cd56         O60   2.462       .  S
Cd56         O58   2.467       .  S
C59          O63   1.267       .  A
C59         C111   1.480       .  S
O64          C67   1.265       .  A
O64         Cd69   2.501       .  S
C65          O74   1.262       .  A
C65          O70   1.265       .  A
O66          C72   1.265       .  A
O66         Cd69   2.459       .  S
C67          O75   1.264       .  A
C67         C133   1.485       .  S
C68          O73   1.265       .  A
C68          O71   1.267       .  A
C68          C77   1.477       .  S
Cd69         O76   2.485       .  S
Cd69         O75   2.477       .  S
Cd69         O74   2.487       .  S
Cd69         O70   2.472       .  S
Cd69         O73   2.434       .  S
Cd69         O71   2.477       .  S
C72          O76   1.267       .  A
C72          C99   1.482       .  S
C77          C78   1.400       .  A
C77          C82   1.400       .  A
C78          C79   1.398   1_455  A
C78          H91   1.083       .  S
C79          C80   1.416       .  A
C79          H92   1.078       .  S
C80          C86   1.429       .  A
C80          C81   1.422   1_655  A
C81          C82   1.400       .  A
C81         C335   1.398       .  A
C82          H93   1.085       .  S
C83          C84   1.387       .  A
C83         C333   1.398       .  A
C83          H94   1.084       .  S
C84          C85   1.398   1_455  A
C84          H95   1.084       .  S
C85          C90   1.403       .  A
C85         C338   1.423       .  A
C86          C87   1.414       .  A
C86         C337   1.423   1_554  A
C87          C88   1.397       .  A
C87          H96   1.077       .  S
C88         C341   1.401   1_554  A
C88          H97   1.083       .  S
C89          C90   1.400       .  A
C89         C340   1.401       .  A
C90          H98   1.084       .  S
C99         C100   1.401       .  A
C99         C104   1.402       .  A
C100        C101   1.396       .  A
C100        H113   1.083       .  S
C101        C102   1.414       .  A
C101        H366   1.077   1_554  S
C102        C108   1.431   1_554  A
C102        C103   1.423       .  A
C103        C105   1.400       .  A
C103        C104   1.407       .  A
C104        H115   1.084       .  S
C105        C106   1.390       .  A
C105        H116   1.084       .  S
C106        C107   1.400   1_554  A
C106        H117   1.084       .  S
C107        C108   1.422       .  A
C107        C112   1.405       .  A
C108        C361   1.416       .  A
C109        C110   1.397       .  A
C109        C360   1.416       .  A
C109        H118   1.077       .  S
C110        C111   1.400       .  A
C110        H119   1.083       .  S
C111        C364   1.403       .  A
C112        C363   1.403       .  A
C112        H120   1.084       .  S
H114        C353   1.077       .  S
C121        C122   1.401       .  A
C121        C126   1.402       .  A
C122        C123   1.402       .  A
C122        H135   1.083       .  S
C123        C124   1.417       .  A
C123        H136   1.077       .  S
C124        C130   1.435   1_565  A
C124        C125   1.423       .  A
C125        C127   1.399       .  A
C125        C126   1.406       .  A
C126        H137   1.084       .  S
C127        C128   1.389   1_565  A
C127        H138   1.084       .  S
C128        C129   1.399       .  A
C128        H139   1.084       .  S
C129        C130   1.423       .  A
C129        C134   1.406       .  A
C130        C131   1.417       .  A
C131        C132   1.401       .  A
C131        H140   1.077       .  S
C132        C133   1.401       .  A
C132        H141   1.083       .  S
C133        C134   1.402       .  A
C134        H142   1.084       .  S
C143        C144   1.402       .  A
C143        C148   1.404       .  A
C144        C145   1.397       .  A
C144        H157   1.083       .  S
C145        C146   1.414       .  A
C145        H158   1.078       .  S
C146        C152   1.434   1_565  A
C146        C147   1.423       .  A
C147        C149   1.401       .  A
C147        C148   1.412       .  A
C148        H159   1.084       .  S
C149        C150   1.393   1_565  A
C149        H160   1.084       .  S
C150        C151   1.401       .  A
C150        H161   1.084       .  S
C151        C152   1.423       .  A
C151        C156   1.411       .  A
C152        C153   1.415       .  A
C153        C154   1.398       .  A
C153        H162   1.077       .  S
C154        C155   1.402       .  A
C154        H163   1.083       .  S
C155        C156   1.404       .  A
C156        H164   1.084       .  S
C165        C166   1.400       .  A
C165        C170   1.400       .  A
C166        C167   1.398       .  A
C166        H179   1.083       .  S
C167        C168   1.416       .  A
C167        H180   1.077       .  S
C168        C174   1.430       .  A
C168        C169   1.422       .  A
C169        C170   1.402       .  A
C169        C423   1.399   1_554  A
C170        H181   1.084       .  S
C171        C172   1.388       .  A
C171        C421   1.399       .  A
C171        H182   1.084       .  S
C172        C173   1.398       .  A
C172        H183   1.084       .  S
C173        C178   1.404       .  A
C173        C426   1.423       .  A
C174        C175   1.414       .  A
C174        C425   1.423   1_554  A
C175        C176   1.397   1_554  A
C175        H184   1.077       .  S
C176        C429   1.402       .  A
C176        H185   1.083       .  S
C177        C178   1.399       .  A
C177        C428   1.402       .  A
C178        H186   1.084       .  S
C187        C192   1.403       .  A
C187        C440   1.399       .  A
C188        C189   1.391       .  A
C188        C439   1.399   1_554  A
C188        H201   1.083       .  S
C189        C190   1.413       .  A
C189        H202   1.076       .  S
C190        C196   1.428       .  A
C190        C443   1.423       .  A
C191        C193   1.400       .  A
C191        C192   1.408       .  A
C191        C442   1.423       .  A
C192        H203   1.084       .  S
C193        C194   1.392   1_655  A
C193        H204   1.084       .  S
C194        C447   1.400       .  A
C194        H205   1.083       .  S
C195        C196   1.421   1_455  A
C195        C200   1.406       .  A
C195        C446   1.400       .  A
C196        C197   1.414       .  A
C197        C198   1.393   1_655  A
C197        H206   1.077       .  S
C198        C199   1.399       .  A
C198        H207   1.083       .  S
C199        C200   1.403       .  A
C200        H208   1.084       .  S
C209        C210   1.405       .  A
C209        C214   1.415       .  A
C210        C211   1.402       .  A
C210        H223   1.081       .  S
C211        C212   1.416       .  A
C211        H224   1.078       .  S
C212        C218   1.437   1_455  A
C212        C213   1.418       .  A
C213        C215   1.404       .  A
C213        C214   1.415       .  A
C214        H225   1.080       .  S
C215        C216   1.398   1_455  A
C215        H226   1.084       .  S
C216        C217   1.402       .  A
C216        H227   1.084       .  S
C217        C218   1.425       .  A
C217        C222   1.422       .  A
C218        C219   1.408       .  A
C219        C220   1.393       .  A
C219        H228   1.078   1_655  S
C220        C221   1.409       .  A
C220        H229   1.083       .  S
C221        C222   1.410       .  A
C222        H230   1.082       .  S
C231        C232   1.411       .  A
C231        C236   1.407       .  A
C232        C233   1.403       .  A
C232        H245   1.079       .  S
C233        C234   1.411       .  A
C233        H246   1.078       .  S
C234        C240   1.441       .  A
C234        C235   1.424       .  A
C235        C237   1.399       .  A
C235        C236   1.415       .  A
C236        H247   1.082       .  S
C237        C238   1.392       .  A
C237        H248   1.084       .  S
C238        C239   1.401       .  A
C238        H249   1.084       .  S
C239        C240   1.418       .  A
C239        C244   1.407       .  A
C240        C241   1.420       .  A
C241        C242   1.409       .  A
C241        H250   1.078       .  S
C242        C243   1.406       .  A
C242        H251   1.080       .  S
C243        C244   1.411       .  A
C244        H252   1.084       .  S
C253        C254   1.540       .  S
C253        C259   1.533       .  S
C253        C257   1.556       .  S
C253        C495   1.542       .  S
C254        H261   1.086       .  S
C254        C255   1.362       .  D
C255        C256   1.537       .  S
C255        C291   1.478       .  S
C256        C260   1.538       .  S
C256        C258   1.548       .  S
C256        H262   1.106       .  S
C257        H263   1.081       .  S
C257        C258   1.386       .  D
C258        C461   1.516       .  S
C259        H264   1.087       .  S
C259        C260   1.360       .  D
C260        C317   1.478       .  S
C265        C266   1.536       .  S
C265        C271   1.538       .  S
C265        C269   1.558       .  S
C265        C473   1.542       .  S
C266        H273   1.087       .  S
C266        C267   1.360       .  D
C267        C268   1.537       .  S
C267        C304   1.479       .  S
C268        C272   1.536       .  S
C268        C270   1.551       .  S
C268        H274   1.106       .  S
C269        H275   1.082       .  S
C269        C270   1.390       .  D
C270        C483   1.516       .  S
C271        H276   1.087       .  S
C271        C272   1.359       .  D
C272        C278   1.480       .  S
O277        C280   1.268       .  A
O277       Cd282   2.524       .  S
C278        O287   1.263       .  A
C278        O283   1.264       .  A
O279        C285   1.265       .  A
O279       Cd282   2.430       .  S
C280        O288   1.263       .  A
C280        C395   1.489       .  S
C281        O286   1.263       .  A
C281        O284   1.268       .  A
C281        C429   1.479       .  S
Cd282       O289   2.488       .  S
Cd282       O288   2.465       .  S
Cd282       O287   2.491       .  S
Cd282       O283   2.473       .  S
Cd282       O286   2.450       .  S
Cd282       O284   2.486       .  S
C285        O289   1.267       .  A
C285        C439   1.478       .  S
O290        C293   1.266       .  A
O290       Cd295   2.509       .  S
C291        O300   1.262       .  A
C291        O296   1.265       .  A
O292        C298   1.265       .  A
O292       Cd295   2.465       .  S
C293        O301   1.263       .  A
C293        C373   1.485       .  S
C294        O299   1.266       .  A
C294        O297   1.266       .  A
C294        C417   1.478       .  S
Cd295       O302   2.457       .  S
Cd295       O301   2.474       .  S
Cd295       O300   2.463       .  S
Cd295       O296   2.485       .  S
Cd295       O299   2.446       .  S
Cd295       O297   2.469       .  S
C298        O302   1.266       .  A
C298        C451   1.478       .  S
O303        C306   1.267       .  A
O303       Cd308   2.517       .  S
C304        O313   1.262       .  A
C304        O309   1.265       .  A
O305        C311   1.265       .  A
O305       Cd308   2.452       .  S
C306        O314   1.264       .  A
C306        C407   1.488       .  S
C307        O312   1.265       .  A
C307        O310   1.266       .  A
C307        C341   1.478       .  S
Cd308       O315   2.477       .  S
Cd308       O314   2.472       .  S
Cd308       O313   2.486       .  S
Cd308       O309   2.477       .  S
Cd308       O312   2.461       .  S
Cd308       O310   2.469       .  S
C311        O315   1.267       .  A
C311        C363   1.480       .  S
O316        C319   1.265       .  A
O316       Cd321   2.501       .  S
C317        O326   1.262       .  A
C317        O322   1.265       .  A
O318        C324   1.265       .  A
O318       Cd321   2.459       .  S
C319        O327   1.264       .  A
C319        C385   1.485       .  S
C320        O325   1.265       .  A
C320        O323   1.267       .  A
C320        C329   1.477       .  S
Cd321       O328   2.485       .  S
Cd321       O327   2.476       .  S
Cd321       O326   2.487       .  S
Cd321       O322   2.471       .  S
Cd321       O325   2.434       .  S
Cd321       O323   2.476       .  S
C324        O328   1.267       .  A
C324        C351   1.482       .  S
C329        C330   1.400       .  A
C329        C334   1.400       .  A
C330        C331   1.398   1_455  A
C330        H343   1.083       .  S
C331        C332   1.416       .  A
C331        H344   1.078       .  S
C332        C338   1.429       .  A
C332        C333   1.422   1_655  A
C333        C334   1.400       .  A
C334        H345   1.085       .  S
C335        C336   1.387   1_554  A
C335        H346   1.084       .  S
C336        C337   1.398   1_455  A
C336        H347   1.084       .  S
C337        C342   1.403       .  A
C338        C339   1.414       .  A
C339        C340   1.397       .  A
C339        H348   1.077       .  S
C340        H349   1.083       .  S
C341        C342   1.400       .  A
C342        H350   1.084       .  S
C351        C352   1.401       .  A
C351        C356   1.402       .  A
C352        C353   1.396       .  A
C352        H365   1.083       .  S
C353        C354   1.414       .  A
C354        C360   1.431       .  A
C354        C355   1.423       .  A
C355        C357   1.400       .  A
C355        C356   1.407       .  A
C356        H367   1.084       .  S
C357        C358   1.390       .  A
C357        H368   1.084       .  S
C358        C359   1.400       .  A
C358        H369   1.084       .  S
C359        C360   1.422       .  A
C359        C364   1.405       .  A
C361        C362   1.397       .  A
C361        H370   1.077       .  S
C362        C363   1.400       .  A
C362        H371   1.083       .  S
C364        H372   1.084       .  S
C373        C374   1.401       .  A
C373        C378   1.402       .  A
C374        C375   1.402       .  A
C374        H387   1.083       .  S
C375        C376   1.417       .  A
C375        H388   1.077       .  S
C376        C382   1.435   1_565  A
C376        C377   1.423       .  A
C377        C379   1.399       .  A
C377        C378   1.406       .  A
C378        H389   1.084       .  S
C379        C380   1.389   1_565  A
C379        H390   1.084       .  S
C380        C381   1.399       .  A
C380        H391   1.084       .  S
C381        C382   1.423       .  A
C381        C386   1.406       .  A
C382        C383   1.417       .  A
C383        C384   1.401       .  A
C383        H392   1.077       .  S
C384        C385   1.401       .  A
C384        H393   1.083       .  S
C385        C386   1.402       .  A
C386        H394   1.084       .  S
C395        C396   1.402       .  A
C395        C400   1.404       .  A
C396        C397   1.397       .  A
C396        H409   1.083       .  S
C397        C398   1.414       .  A
C397        H410   1.078       .  S
C398        C404   1.434   1_565  A
C398        C399   1.423       .  A
C399        C401   1.401       .  A
C399        C400   1.412       .  A
C400        H411   1.084       .  S
C401        C402   1.393   1_565  A
C401        H412   1.084       .  S
C402        C403   1.401       .  A
C402        H413   1.084       .  S
C403        C404   1.423       .  A
C403        C408   1.411       .  A
C404        C405   1.415       .  A
C405        C406   1.398       .  A
C405        H414   1.078       .  S
C406        C407   1.402       .  A
C406        H415   1.083       .  S
C407        C408   1.404       .  A
C408        H416   1.084       .  S
C417        C418   1.400       .  A
C417        C422   1.400       .  A
C418        C419   1.398       .  A
C418        H431   1.083       .  S
C419        C420   1.416       .  A
C419        H432   1.077       .  S
C420        C426   1.430       .  A
C420        C421   1.422       .  A
C421        C422   1.402       .  A
C422        H433   1.084       .  S
C423        C424   1.388       .  A
C423        H434   1.084       .  S
C424        C425   1.398       .  A
C424        H435   1.084       .  S
C425        C430   1.404       .  A
C426        C427   1.414       .  A
C427        C428   1.397       .  A
C427        H436   1.077       .  S
C428        H437   1.083       .  S
C429        C430   1.399       .  A
C430        H438   1.084       .  S
C439        C444   1.403       .  A
C440        C441   1.391       .  A
C440        H453   1.083       .  S
C441        C442   1.413       .  A
C441        H454   1.076       .  S
C442        C448   1.428       .  A
C443        C445   1.400   1_554  A
C443        C444   1.408   1_554  A
C444        H455   1.084       .  S
C445        C446   1.392   1_656  A
C445        H456   1.084       .  S
C446        H457   1.083       .  S
C447        C448   1.422   1_455  A
C447        C452   1.406       .  A
C448        C449   1.414       .  A
C449        C450   1.393   1_655  A
C449        H458   1.077       .  S
C450        C451   1.399       .  A
C450        H459   1.083       .  S
C451        C452   1.403       .  A
C452        H460   1.084       .  S
C461        C462   1.405       .  A
C461        C466   1.414       .  A
C462        C463   1.402       .  A
C462        H475   1.081       .  S
C463        C464   1.416       .  A
C463        H476   1.078       .  S
C464        C470   1.437   1_455  A
C464        C465   1.418       .  A
C465        C467   1.404       .  A
C465        C466   1.415       .  A
C466        H477   1.080       .  S
C467        C468   1.398   1_455  A
C467        H478   1.084       .  S
C468        C469   1.402       .  A
C468        H479   1.084       .  S
C469        C470   1.425       .  A
C469        C474   1.422       .  A
C470        C471   1.408       .  A
C471        C472   1.393       .  A
C471        H480   1.078   1_655  S
C472        C473   1.409       .  A
C472        H481   1.083       .  S
C473        C474   1.409       .  A
C474        H482   1.082       .  S
C483        C484   1.411       .  A
C483        C488   1.407       .  A
C484        C485   1.402       .  A
C484        H497   1.079       .  S
C485        C486   1.411       .  A
C485        H498   1.078       .  S
C486        C492   1.440       .  A
C486        C487   1.424       .  A
C487        C489   1.400       .  A
C487        C488   1.415       .  A
C488        H499   1.082       .  S
C489        C490   1.392       .  A
C489        H500   1.084       .  S
C490        C491   1.401       .  A
C490        H501   1.084       .  S
C491        C492   1.418       .  A
C491        C496   1.407       .  A
C492        C493   1.420       .  A
C493        C494   1.409       .  A
C493        H502   1.078       .  S
C494        C495   1.406       .  A
C494        H503   1.080       .  S
C495        C496   1.411       .  A
C496        H504   1.084       .  S
