geometry optimzed in LAMMPS
_audit_creation_date              2020-11-30 
_audit_creation_method            'lammps2cif' 
_symmetry_space_group_name_H-M    'P1' 
_symmetry_Int_Tables_number       1 
_symmetry_cell_setting            triclinic 
loop_ 
_symmetry_equiv_pos_as_xyz 
  x,y,z 
_cell_length_a                    38.53510979 
_cell_length_b                    39.57778739917203 
_cell_length_c                    31.170648605885372 
_cell_angle_alpha                 91.0014608564545 
_cell_angle_beta                  88.67588492103296 
_cell_angle_gamma                 91.28261528225708 
loop_ 
_atom_site_label 
_atom_site_type_symbol 
_atom_site_fract_x 
_atom_site_fract_y 
_atom_site_fract_z 
_atom_site_charge 
C1          C  0.31167734  0.14893630  0.80630944     0.79900
N2          N  0.34471688  0.15957041  0.79793180    -0.78400
C3          C  0.35790420  0.18840122  0.81554237     0.82400
N4          N  0.33723374  0.20727744  0.84199831    -0.78300
C5          C  0.30410221  0.19670339  0.85162529     0.82500
N6          N  0.29131042  0.16746740  0.83365043    -0.80000
C7          C  0.05240835  0.08970998  0.57494378     0.79900
N8          N  0.08306257  0.07817128  0.58870163    -0.78400
C9          C  0.09701203  0.04951962  0.57197228     0.82400
N10         N  0.08002407  0.03199621  0.54073221    -0.78300
C11         C  0.04956755  0.04348609  0.52590650     0.82500
N12         N  0.03586981  0.07228381  0.54308663    -0.80000
C13         C  0.15693197  0.29270975  0.77478162     0.79900
N14         N  0.17191217  0.27889156  0.80936207    -0.78400
C15         C  0.19948727  0.29498887  0.82830989     0.82400
N16         N  0.21147145  0.32518439  0.81290907    -0.78300
C17         C  0.19610001  0.33940226  0.77900214     0.82500
N18         N  0.16903133  0.32296359  0.76034840    -0.80000
C19         C  0.38998299  0.43150320  0.56096013     0.79900
N20         N  0.41006333  0.45027351  0.53347696    -0.78400
C21         C  0.44096081  0.43877502  0.51820696     0.82400
N22         N  0.45200400  0.40826306  0.53069587    -0.78300
C23         C  0.43234048  0.38904666  0.55801453     0.82500
N24         N  0.40134008  0.40079145  0.57298912    -0.80000
C25         C  0.48332822  0.27216161  0.64668764     0.86200
C26         C  0.01902930  0.28186641  0.66656582    -0.54000
C27         C  0.02939769  0.25641529  0.69199827     0.09100
C28         C  0.00297760  0.22668833  0.69449082     0.20100
C29         C  0.48884233  0.23785732  0.62412505    -0.54800
C30         C  0.99823503  0.21550940  0.64704668     0.09200
C31         C  0.45829653  0.26472592  0.68469087    -0.54300
C32         C  0.46876626  0.23994854  0.71112776     0.09800
H33         H  0.03469740  0.30473639  0.66366143     0.14300
H34         H  0.01077826  0.20613597  0.71572847     0.00100
H35         H  0.48597338  0.23444588  0.58979365     0.14600
H36         H  0.43409353  0.27773332  0.69009538     0.14400
C37         C  0.26293126  0.02717629  0.71485672     0.86200
C38         C  0.23119267  0.03618206  0.68944804    -0.54000
C39         C  0.21841203  0.01105204  0.66312022     0.09100
C40         C  0.23792221  0.47910835  0.66610521     0.20100
C41         C  0.24657687  0.49725577  0.74060952    -0.54800
C42         C  0.23528692  0.47138772  0.71453305     0.09200
C43         C  0.28908492  0.01329182  0.68120110    -0.54300
C44         C  0.27636599  0.48951661  0.65886714     0.09800
H45         H  0.22008183  0.06112571  0.69207758     0.14300
H46         H  0.22971190  0.45775484  0.64494249     0.00100
H47         H  0.24841603  0.49411034  0.77490270     0.14600
H48         H  0.31614197  0.02140368  0.67891356     0.14400
O49         O  0.29328538  0.24707117  0.89165233    -0.74700
O50         O  0.23805704  0.30243558  0.96737911    -0.74700
O51         O  0.28723160  0.25471383  0.97784444    -0.74800
O52         O  0.24377910  0.29405967  0.88081377    -0.74900
O53         O  0.20265476  0.25353154  0.88263133    -0.74800
O54         O  0.24602350  0.21425877  0.97904559    -0.74800
O55         O  0.19686385  0.26197138  0.96933888    -0.74700
O56         O  0.25207813  0.20658018  0.89270991    -0.74800
Ni57       Ni  0.26700653  0.27604641  0.92936756     1.25400
Ni58       Ni  0.22290159  0.23270848  0.93105838     1.25400
C59         C  0.28201684  0.21771763  0.87998651     0.87500
C60         C  0.20835056  0.29138524  0.98083112     0.87400
C61         C  0.27408166  0.22746860  0.99377348     0.87400
C62         C  0.21611194  0.28014649  0.86568024     0.87600
O63         O  0.49604641  0.45022729  0.38926114    -0.74700
O64         O  0.03992202  0.49550929  0.47952517    -0.74700
O65         O  0.49212785  0.44846013  0.47572044    -0.74800
O66         O  0.04670762  0.49876316  0.39287636    -0.74900
O67         O  0.00986799  0.03904496  0.38871972    -0.74800
O68         O  0.45133714  0.48760223  0.47598718    -0.74800
O69         O  0.00423881  0.03709715  0.47553867    -0.74700
O70         O  0.45553554  0.48961327  0.38912427    -0.74800
Ni71       Ni  0.01971680  0.47132978  0.43215982     1.25400
Ni72       Ni  0.47582572  0.01062701  0.43358211     1.25400
C73         C  0.46819922  0.46198951  0.37420804     0.87500
C74         C  0.03198797  0.02523548  0.49076353     0.87400
C75         C  0.46255162  0.45933254  0.48870248     0.87400
C76         C  0.03914465  0.02782774  0.37514092     0.87600
C77         C  0.29497024  0.16393131  0.07518337     0.79900
N78         N  0.32536122  0.17685777  0.08984423    -0.78400
C79         C  0.33926550  0.20605093  0.07466128     0.82400
N80         N  0.32246404  0.22297799  0.04397215    -0.78300
C81         C  0.29177481  0.21030142  0.02867373     0.82500
N82         N  0.27826576  0.18057516  0.04418203    -0.80000
C83         C  0.06414308  0.09614309  0.30048865     0.79900
N84         N  0.04649841  0.07739209  0.33008552    -0.78400
C85         C  0.05937156  0.04775645  0.34338316     0.82400
N86         N  0.08982084  0.03641155  0.32587657    -0.78300
C87         C  0.10758417  0.05497133  0.29570843     0.82500
N88         N  0.09449211  0.08484615  0.28362931    -0.80000
C89         C  0.18063724  0.36278843  0.05220810     0.79900
N90         N  0.19897043  0.34394204  0.02288442    -0.78400
C91         C  0.18736947  0.31255069  0.01054390     0.82400
N92         N  0.15726352  0.29987515  0.02786843    -0.78300
C93         C  0.13883792  0.31819447  0.05735300     0.82500
N94         N  0.15082281  0.34936197  0.06963171    -0.80000
C95         C  0.44805153  0.39516805  0.29362482     0.79900
N96         N  0.42154556  0.40887131  0.27295301    -0.78400
C97         C  0.40911753  0.43947832  0.28473656     0.82400
N98         N  0.42388227  0.45669160  0.31821959    -0.78300
C99         C  0.45094551  0.44321168  0.33912146     0.82500
N100        N  0.46292393  0.41236076  0.32666437    -0.80000
C101        C  0.01158375  0.21015485  0.20808455     0.86200
C102        C  0.03870874  0.22140323  0.17396900    -0.54000
C103        C  0.02902781  0.24812705  0.15033715     0.09100
C104        C  0.48891414  0.25905143  0.17164085     0.20100
C105        C  0.00347434  0.24250350  0.23394808    -0.54800
C106        C  0.48886305  0.26665169  0.22036092     0.09200
C107        C  0.47434025  0.20084009  0.18971246    -0.54300
C108        C  0.46503163  0.22780817  0.16618012     0.09800
H109        H  0.06433657  0.21072469  0.17048240     0.14300
H110        H  0.48113605  0.28012517  0.15130085     0.00100
H111        H  0.00671671  0.24419788  0.26841291     0.14600
H112        H  0.46010197  0.17701545  0.18747114     0.14400
C113        C  0.28657090  0.48711905  0.19722826     0.86200
C114        C  0.29629112  0.01981879  0.16594944    -0.54000
C115        C  0.26805126  0.03254447  0.14667997     0.09100
C116        C  0.23472740  0.01070330  0.15287983     0.20100
C117        C  0.25502388  0.49312072  0.22759568    -0.54800
C118        C  0.23024839  0.00822639  0.20204957     0.09200
C119        C  0.27178287  0.46356898  0.16199801    -0.54300
C120        C  0.24363742  0.47561198  0.14202492     0.09800
H121        H  0.32153678  0.03260947  0.16535712     0.14300
H122        H  0.21171882  0.02053795  0.13675505     0.00100
H123        H  0.25541921  0.48880830  0.26187664     0.14600
H124        H  0.28037304  0.43810868  0.15532418     0.14400
C125        C  0.37949753  0.45314645  0.26103162    -0.05800
C126        C  0.36087819  0.48073092  0.27760406    -0.33200
C127        C  0.33148780  0.49220404  0.25685482     0.36100
C128        C  0.31913649  0.47530075  0.21957159    -0.06100
C129        C  0.33938168  0.44921366  0.20167962    -0.33100
C130        C  0.36899730  0.43825972  0.22170321     0.36000
H131        H  0.36886146  0.49336594  0.30697673     0.16300
O132        O  0.31893921  0.02115733  0.26571708    -0.60600
H133        H  0.33346210  0.43747918  0.17117820     0.16400
O134        O  0.38749770  0.41290995  0.20196769    -0.60700
H135        H  0.40553717  0.42461722  0.18412655     0.43400
H136        H  0.33138433  0.04043183  0.25189001     0.43300
C137        C  0.46143671  0.36277842  0.27778134    -0.05800
C138        C  0.47808497  0.36157937  0.23748996    -0.33200
C139        C  0.48800919  0.33076383  0.21886149     0.36100
C140        C  0.48018873  0.30014931  0.24012744    -0.06100
C141        C  0.46347125  0.30164239  0.28082342    -0.33100
C142        C  0.45412916  0.33265366  0.29960283     0.36000
H143        H  0.48328689  0.38474674  0.22020321     0.16300
O144        O  0.00613376  0.33312384  0.16566407    -0.60600
H145        H  0.45660466  0.27867633  0.29768900     0.16400
O146        O  0.43680829  0.33316986  0.33854187    -0.60700
H147        H  0.41180938  0.33276907  0.33160481     0.43400
H148        H  0.02836155  0.34608246  0.16789028     0.43300
C149        C  0.19440116  0.39621428  0.06857581    -0.05800
C150        C  0.17524682  0.41438506  0.10012525    -0.33200
C151        C  0.18972383  0.44271122  0.12144784     0.36100
C152        C  0.22402356  0.45331032  0.11176038    -0.06100
C153        C  0.24210305  0.43714523  0.07788605    -0.33100
C154        C  0.22753834  0.40918463  0.05603715     0.35400
H155        H  0.14950849  0.40567473  0.11006556     0.16300
O156        O  0.17144249  0.45751819  0.15474023    -0.60600
H157        H  0.26852531  0.44511745  0.06991279     0.16400
O158        O  0.24705157  0.39356050  0.02450327    -0.60700
H159        H  0.24141874  0.40513866  0.99765936     0.43400
H160        H  0.15743342  0.47500673  0.14130674     0.43300
C161        C  0.10848797  0.30264229  0.07987882    -0.05800
C162        C  0.10567102  0.30601185  0.12470413    -0.33200
C163        C  0.07947301  0.28867626  0.14771055     0.36100
C164        C  0.05500245  0.26834576  0.12579528    -0.06100
C165        C  0.05680216  0.26594393  0.08093539    -0.33100
C166        C  0.08372416  0.28251725  0.05793366     0.36000
H167        H  0.12478711  0.32090707  0.14217336     0.16300
O168        O  0.07898831  0.29020775  0.19177136    -0.60600
H169        H  0.03801737  0.25034096  0.06389047     0.16400
O170        O  0.08537227  0.27930207  0.01405915    -0.60700
H171        H  0.09613263  0.25712026  0.00814275     0.43400
H172        H  0.07198104  0.31347363  0.19970021     0.43300
C173        C  0.02386483  0.18172492  0.23661390    -0.05800
C174        C  0.00228682  0.15342593  0.24633689    -0.33200
C175        C  0.01467596  0.12611373  0.26883150     0.36100
C176        C  0.04899760  0.12667896  0.28294272    -0.06100
C177        C  0.06978171  0.15574143  0.27675658    -0.33100
C178        C  0.05726836  0.18342387  0.25473816     0.36000
H179        H  0.47114490  0.14796559  0.24213152     0.16300
O180        O  0.48901660  0.09402147  0.27987726    -0.60600
H181        H  0.09598698  0.15686149  0.28868075     0.16400
O182        O  0.07775141  0.21214868  0.25134828    -0.60700
H183        H  0.09849440  0.20552864  0.23400113     0.43400
H184        H  0.49262575  0.08011763  0.25343592     0.43300
C185        C  0.19909906  0.02005613  0.22642800    -0.05800
C186        C  0.18352027  0.99991390  0.25848932    -0.33200
C187        C  0.15393374  0.01068519  0.28162299     0.36100
C188        C  0.13971998  0.04250207  0.27344275    -0.06100
C189        C  0.15599513  0.06273340  0.24173142    -0.33100
C190        C  0.18520023  0.05180593  0.21847007     0.36000
H191        H  0.19231744  0.47509612  0.27457314     0.16300
O192        O  0.13849398  0.49072400  0.32250035    -0.60600
H193        H  0.14611222  0.08735253  0.23454403     0.16400
O194        O  0.20028058  0.07275791  0.18847864    -0.60700
H195        H  0.21552278  0.08849131  0.20496543     0.43400
H196        H  0.12279510  0.47382117  0.30865107     0.43300
C197        C  0.26923686  0.06723070  0.12917544    -0.05800
C198        C  0.26003843  0.07343217  0.08670036    -0.33200
C199        C  0.26609387  0.10558968  0.06881062     0.36100
C200        C  0.28146750  0.13180288  0.09368584    -0.06100
C201        C  0.28806319  0.12594574  0.13696852    -0.33100
C202        C  0.28222776  0.09415602  0.15464232     0.36000
H203        H  0.24984784  0.05296625  0.06682395     0.16300
O204        O  0.25951337  0.11025197  0.02631595    -0.60600
H205        H  0.29903231  0.14592140  0.15703489     0.16400
O206        O  0.28925288  0.08955660  0.19711235    -0.60700
H207        H  0.31493579  0.09019441  0.19876970     0.43400
H208        H  0.23521727  0.11795258  0.02585869     0.43300
C209        C  0.37358331  0.21700664  0.09038203    -0.05800
C210        C  0.37646955  0.24376971  0.12031498    -0.33200
C211        C  0.40694493  0.24863903  0.14382740     0.36100
C212        C  0.43471098  0.22635476  0.13771392    -0.06100
C213        C  0.43233261  0.20064898  0.10634047    -0.33100
C214        C  0.40214475  0.19597623  0.08271298     0.36000
H215        H  0.35433781  0.25948269  0.12746040     0.16300
O216        O  0.40804646  0.27310307  0.17550576    -0.60600
H217        H  0.45355636  0.18342330  0.10118893     0.16400
O218        O  0.39990849  0.16932945  0.05409618    -0.60700
H219        H  0.40387012  0.17939883  0.02543785     0.43400
H220        H  0.41597690  0.29402711  0.16086070     0.43300
C221        C  0.35759282  0.44555418  0.58071440    -0.05800
C222        C  0.33557535  0.42482139  0.60622766    -0.33200
C223        C  0.30757821  0.43834934  0.62995041     0.36100
C224        C  0.30104223  0.47308809  0.62829108    -0.06100
C225        C  0.32167159  0.49346529  0.60110410    -0.33100
C226        C  0.34944728  0.48008110  0.57719728     0.36000
H227        H  0.34075875  0.39819014  0.60921567     0.16300
O228        O  0.28799044  0.41777432  0.65640521    -0.60600
H229        H  0.31692107  0.52030326  0.59952284     0.16400
O230        O  0.36957753  0.50162659  0.55264299    -0.60700
H231        H  0.35747136  0.50293782  0.52500716     0.43400
H232        H  0.30340013  0.41230773  0.68024654     0.43300
C233        C  0.47063333  0.29973110  0.61697309    -0.05800
C234        C  0.49374282  0.32491256  0.60106776    -0.33200
C235        C  0.48177415  0.35330603  0.58042531     0.36100
C236        C  0.44597676  0.35708931  0.57441407    -0.06100
C237        C  0.42315667  0.33041582  0.58574279    -0.33100
C238        C  0.43528198  0.30154094  0.60583706     0.36000
H239        H  0.01939895  0.33206411  0.61102497     0.16300
O240        O  0.50529603  0.37821817  0.56881914    -0.60600
H241        H  0.39573385  0.33204387  0.57932060     0.16400
O242        O  0.41251791  0.27511890  0.61412230    -0.60700
H243        H  0.39417252  0.28437238  0.63354727     0.43400
H244        H  0.01349964  0.37923694  0.54700201     0.43300
C245        C  0.22525318  0.43786859  0.73160845    -0.05800
C246        C  0.25040436  0.41767465  0.74965870    -0.33200
C247        C  0.24149903  0.38557441  0.76549152     0.36100
C248        C  0.20690944  0.37334962  0.76346651    -0.06100
C249        C  0.18175405  0.39407989  0.74611278    -0.33100
C250        C  0.19063190  0.42623872  0.73094021     0.36000
H251        H  0.27710254  0.42672597  0.75106720     0.16300
O252        O  0.26702692  0.36585400  0.78100440    -0.60600
H253        H  0.15484329  0.38562366  0.74509415     0.16400
O254        O  0.16507399  0.44649593  0.71673531    -0.60700
H255        H  0.15699176  0.45943917  0.74245812     0.43400
H256        H  0.26972757  0.37332830  0.81129942     0.43300
C257        C  0.12693472  0.27631942  0.75292748    -0.05800
C258        C  0.09946580  0.26098478  0.77652293    -0.33200
C259        C  0.06801464  0.25191651  0.75662513     0.36100
C260        C  0.06388133  0.25828256  0.71271004    -0.06100
C261        C  0.09252383  0.27063792  0.68864049    -0.33100
C262        C  0.12363673  0.27966182  0.70823903     0.36000
H263        H  0.10149832  0.25808801  0.81085804     0.16300
O264        O  0.04061054  0.23987102  0.78112859    -0.60600
H265        H  0.09026392  0.27478972  0.65454775     0.16400
O266        O  0.15017128  0.29331527  0.68356519    -0.60700
H267        H  0.16517953  0.27404930  0.67565034     0.43400
H268        H  0.04496054  0.21546198  0.78441259     0.43300
C269        C  0.13034162  0.03789755  0.58838752    -0.05800
C270        C  0.13466002  0.00389384  0.59880201    -0.33200
C271        C  0.16362020  0.49342523  0.61954647     0.36100
C272        C  0.18977715  0.01808437  0.63280149    -0.06100
C273        C  0.18683766  0.05126412  0.61775806    -0.33100
C274        C  0.15731943  0.06135209  0.59672807     0.36000
H275        H  0.11290994  0.48398022  0.59351459     0.16300
O276        O  0.16659887  0.46063838  0.63191893    -0.60600
H277        H  0.20712368  0.07008726  0.62332938     0.16400
O278        O  0.15518147  0.09427400  0.58407115    -0.60700
H279        H  0.15115094  0.10763520  0.61086062     0.43400
H280        H  0.17421323  0.44811129  0.60565376     0.43300
C281        C  0.03748961  0.12115132  0.59442093    -0.05800
C282        C  0.00826756  0.13575381  0.57652683    -0.33200
C283        C  0.99451523  0.16591881  0.59353382     0.36100
C284        C  0.00993031  0.18216740  0.62932658    -0.06100
C285        C  0.03855355  0.16714318  0.64764508    -0.33100
C286        C  0.05221504  0.13714194  0.63086439     0.36000
H287        H  0.99601215  0.12394220  0.54898907     0.16300
O288        O  0.46330725  0.17459543  0.58302987    -0.60600
H289        H  0.05140247  0.17912242  0.67461073     0.16400
O290        O  0.07975960  0.12354716  0.65107062    -0.60700
H291        H  0.10026514  0.13754920  0.64220557     0.43400
H292        H  0.46967115  0.18117840  0.55326184     0.43300
C293        C  0.29813478  0.11853683  0.78319851    -0.05800
C294        C  0.27163360  0.09808398  0.80126712    -0.33200
C295        C  0.26028574  0.06821753  0.78023582     0.36100
C296        C  0.27607949  0.05790056  0.74075889    -0.06100
C297        C  0.30043504  0.08026256  0.72144816    -0.33100
C298        C  0.31183717  0.10973034  0.74231189     0.36000
H299        H  0.25972593  0.10514487  0.83184983     0.16300
O300        O  0.23259262  0.05034117  0.79747005    -0.60600
H301        H  0.31019586  0.07588493  0.68909634     0.16400
O302        O  0.33474559  0.13097417  0.72099985    -0.60700
H303        H  0.35663857  0.11837975  0.71780662     0.43400
H304        H  0.24125431  0.04024538  0.82397865     0.43300
C305        C  0.39223983  0.20126528  0.79976655    -0.05800
C306        C  0.39907418  0.23623306  0.79871726    -0.33200
C307        C  0.42626728  0.24931132  0.77299668     0.36100
C308        C  0.44664943  0.22734071  0.74729305    -0.06100
C309        C  0.44285110  0.19243528  0.75294328    -0.33100
C310        C  0.41601087  0.17928234  0.77914230     0.36000
H311        H  0.38193783  0.25364964  0.81539323     0.16300
O312        O  0.43158255  0.28365303  0.77161649    -0.60600
H313        H  0.45902942  0.17508885  0.73466771     0.16400
O314        O  0.41264891  0.14489268  0.78360293    -0.60700
H315        H  0.40772412  0.13563284  0.75456332     0.43400
H316        H  0.44863152  0.28894422  0.79424669     0.43300
C317        C  0.30961762  0.65037262  0.80546008     0.79900
N318        N  0.34223850  0.66123972  0.79514713    -0.78400
C319        C  0.35602945  0.68975603  0.81300830     0.82400
N320        N  0.33631992  0.70811772  0.84117872    -0.78300
C321        C  0.30358823  0.69728222  0.85223035     0.82500
N322        N  0.29031499  0.66832140  0.83439091    -0.80000
C323        C  0.04904388  0.58731593  0.57869696     0.79900
N324        N  0.08038502  0.57613484  0.59067410    -0.78400
C325        C  0.09408081  0.54761047  0.57324478     0.82400
N326        N  0.07612343  0.52984663  0.54307763    -0.78300
C327        C  0.04494630  0.54093440  0.52994758     0.82500
N328        N  0.03153051  0.56966765  0.54777317    -0.80000
C329        C  0.15740472  0.79355830  0.77915793     0.79900
N330        N  0.17226421  0.77947781  0.81355293    -0.78400
C331        C  0.19985848  0.79533879  0.83262383     0.82400
N332        N  0.21209831  0.82552438  0.81748338    -0.78300
C333        C  0.19684780  0.83996970  0.78366210     0.82500
N334        N  0.16968731  0.82377852  0.76491197    -0.80000
C335        C  0.38679150  0.92718215  0.55620775     0.79900
N336        N  0.40665249  0.94531468  0.52783214    -0.78400
C337        C  0.43813648  0.93423717  0.51412593     0.82400
N338        N  0.45009421  0.90493163  0.52922960    -0.78300
C339        C  0.43060064  0.88640657  0.55738548     0.82500
N340        N  0.39900401  0.89758533  0.57084433    -0.80000
C341        C  0.48683203  0.77502362  0.65190217     0.86200
C342        C  0.02159699  0.78205737  0.66772951    -0.54000
C343        C  0.03160860  0.75670715  0.69349177     0.09100
C344        C  0.00492677  0.72727657  0.69633723     0.20100
C345        C  0.49107060  0.74079856  0.62831788    -0.54800
C346        C  0.99982598  0.71573148  0.64912868     0.09200
C347        C  0.46139236  0.76776379  0.68931424    -0.54300
C348        C  0.47079023  0.74217886  0.71511652     0.09800
H349        H  0.03730764  0.80493023  0.66484447     0.14300
H350        H  0.01282766  0.70685794  0.71769864     0.00100
H351        H  0.48846026  0.73770897  0.59385788     0.14600
H352        H  0.43714263  0.78094521  0.69383074     0.14400
C353        C  0.25898244  0.52893297  0.71620009     0.86200
C354        C  0.22889389  0.53762673  0.68768282    -0.54000
C355        C  0.21774316  0.51219090  0.66073418     0.09100
C356        C  0.23840088  0.97767115  0.66670592     0.20100
C357        C  0.25184682  0.99563930  0.74015824    -0.54800
C358        C  0.23865774  0.96992169  0.71521243     0.09200
C359        C  0.28716997  0.51529745  0.68518837    -0.54300
C360        C  0.27640958  0.98761556  0.65596992     0.09800
H361        H  0.21730439  0.56239663  0.68917149     0.14300
H362        H  0.22875243  0.95640478  0.64637949     0.00100
H363        H  0.25504003  0.99318312  0.77444039     0.14600
H364        H  0.31391677  0.52460188  0.68483015     0.14400
O365        O  0.29345409  0.74667265  0.89426174    -0.74700
O366        O  0.23800895  0.80018493  0.97146695    -0.74700
O367        O  0.28711353  0.75248722  0.98048780    -0.74800
O368        O  0.24400743  0.79367952  0.88497106    -0.74900
O369        O  0.20299482  0.75299090  0.88553552    -0.74800
O370        O  0.24590709  0.71198554  0.98084099    -0.74800
O371        O  0.19686632  0.75960633  0.97219939    -0.74700
O372        O  0.25232534  0.70605849  0.89442926    -0.74800
Ni373      Ni  0.26708596  0.77473174  0.93281767     1.25400
Ni374      Ni  0.22303221  0.73125360  0.93330573     1.25400
C375        C  0.28211307  0.71758287  0.88179046     0.87500
C376        C  0.20832358  0.78878938  0.98447313     0.87400
C377        C  0.27385583  0.72511170  0.99588834     0.87400
C378        C  0.21641857  0.77996276  0.86947551     0.87600
O379        O  0.49546337  0.94711011  0.38631292    -0.74700
O380        O  0.04491886  0.99786322  0.47556713    -0.74700
O381        O  0.48975939  0.94387235  0.47268628    -0.74800
O382        O  0.05051503  0.99978365  0.38851102    -0.74900
O383        O  0.00605249  0.53804409  0.39302898    -0.74800
O384        O  0.44900888  0.98305699  0.47240709    -0.74800
O385        O  0.99922782  0.53472885  0.47967178    -0.74700
O386        O  0.45520528  0.98674262  0.38586389    -0.74800
Ni387      Ni  0.02401340  0.97293595  0.42917300     1.25400
Ni388      Ni  0.47714962  0.51463012  0.43534844     1.25400
C389        C  0.46818331  0.95944375  0.37046239     0.87500
C390        C  0.02695064  0.52277188  0.49495468     0.87400
C391        C  0.45999085  0.95468980  0.48499406     0.87400
C392        C  0.03544356  0.52692141  0.37981291     0.87600
C393        C  0.29415505  0.66306693  0.07940617     0.79900
N394        N  0.32565085  0.67512702  0.09172823    -0.78400
C395        C  0.34022739  0.70325193  0.07420586     0.82400
N396        N  0.32303349  0.71987916  0.04378227    -0.78300
C397        C  0.29148067  0.70799917  0.03064082     0.82500
N398        N  0.27719225  0.67937217  0.04828141    -0.80000
C399        C  0.06064699  0.59489263  0.30507930     0.79900
N400        N  0.04290524  0.57631858  0.33472184    -0.78400
C401        C  0.05585890  0.54689408  0.34853541     0.82400
N402        N  0.08640209  0.53549263  0.33149562    -0.78300
C403        C  0.10426970  0.55382352  0.30128615     0.82500
N404        N  0.09113838  0.58356906  0.28861809    -0.80000
C405        C  0.18007665  0.85960646  0.05572642     0.79900
N406        N  0.19831204  0.84103806  0.02614173    -0.78400
C407        C  0.18736142  0.80933996  0.01454694     0.82400
N408        N  0.15796336  0.79598632  0.03279977    -0.78300
C409        C  0.13970741  0.81401891  0.06268425     0.82500
N410        N  0.15104933  0.84555331  0.07434272    -0.80000
C411        C  0.45121403  0.89524621  0.28579162     0.79900
N412        N  0.42498382  0.90915422  0.26478291    -0.78400
C413        C  0.41172859  0.93920042  0.27762646     0.82400
N414        N  0.42538052  0.95554369  0.31251393    -0.78300
C415        C  0.45208728  0.94175060  0.33377262     0.82500
N416        N  0.46483501  0.91151591  0.32027616    -0.80000
C417        C  0.00819447  0.70896567  0.21277884     0.86200
C418        C  0.03688632  0.71986447  0.18056829    -0.54000
C419        C  0.02859765  0.74640335  0.15586793     0.09100
C420        C  0.49274686  0.76041268  0.16349823     0.20100
C421        C  0.99887774  0.74153035  0.23762999    -0.54800
C422        C  0.49288027  0.76758248  0.21228657     0.09200
C423        C  0.47787600  0.70227299  0.18122707    -0.54300
C424        C  0.46873126  0.72923442  0.15758011     0.09800
H425        H  0.06242279  0.70880712  0.17886150     0.14300
H426        H  0.48544736  0.78202722  0.14372112     0.00100
H427        H  0.99997373  0.74357388  0.27235420     0.14600
H428        H  0.46340563  0.67863207  0.17903907     0.14400
C429        C  0.28908474  0.98732605  0.19071147     0.86200
C430        C  0.29333226  0.52088504  0.17511211    -0.54000
C431        C  0.26518916  0.53375098  0.15578481     0.09100
C432        C  0.23245495  0.51066798  0.15915916     0.20100
C433        C  0.25841999  0.99544724  0.22161426    -0.54800
C434        C  0.22691037  0.50611678  0.20802049     0.09200
C435        C  0.27277960  0.96267264  0.15775525    -0.54300
C436        C  0.24450432  0.97468613  0.13796763     0.09800
H437        H  0.31839048  0.53398996  0.17566238     0.14300
H438        H  0.20961204  0.52044443  0.14267948     0.00100
H439        H  0.25915074  0.99210048  0.25607258     0.14600
H440        H  0.28058836  0.93675684  0.15256976     0.14400
C441        C  0.38215198  0.95305109  0.25390078    -0.05800
C442        C  0.36407018  0.98108894  0.27019060    -0.33200
C443        C  0.33478005  0.99284356  0.24949857     0.36100
C444        C  0.32174500  0.97556794  0.21284001    -0.06100
C445        C  0.34150624  0.94912659  0.19504694    -0.33100
C446        C  0.37119290  0.93802568  0.21482449     0.36000
H447        H  0.37248939  0.99397729  0.29919854     0.16300
O448        O  0.31479174  0.51983415  0.27367477    -0.60600
H449        H  0.33503187  0.93723382  0.16478671     0.16400
O450        O  0.38924848  0.91235796  0.19514591    -0.60700
H451        H  0.40651242  0.92374400  0.17587715     0.43400
H452        H  0.32708705  0.53965822  0.26093557     0.43300
C453        C  0.46494119  0.86305534  0.27000483    -0.05800
C454        C  0.48421394  0.86234342  0.23145969    -0.33200
C455        C  0.49458238  0.83159923  0.21291610     0.36100
C456        C  0.48451689  0.80084933  0.23244940    -0.06100
C457        C  0.46563794  0.80187416  0.27164236    -0.33100
C458        C  0.45585041  0.83270011  0.29037335     0.36000
H459        H  0.49103139  0.88575481  0.21547182     0.16300
O460        O  0.00917002  0.83169977  0.17123748    -0.60600
H461        H  0.45737637  0.77868375  0.28715496     0.16400
O462        O  0.43640284  0.83287474  0.32778675    -0.60700
H463        H  0.41190861  0.83136147  0.31870894     0.43400
H464        H  0.03200280  0.84271826  0.17692227     0.43300
C465        C  0.19328437  0.89353764  0.07069157    -0.05800
C466        C  0.17604216  0.91051039  0.10488388    -0.33200
C467        C  0.19078023  0.93950666  0.12431646     0.36100
C468        C  0.22349994  0.95179879  0.11016220    -0.06100
C469        C  0.23939947  0.93673117  0.07395766    -0.33100
C470        C  0.22431748  0.90832466  0.05370847     0.35400
H471        H  0.15184260  0.90040855  0.11819631     0.16300
O472        O  0.17463202  0.95350072  0.15980425    -0.60600
H473        H  0.26456876  0.94606537  0.06262625     0.16400
O474        O  0.24129708  0.89431484  0.01883268    -0.60700
H475        H  0.23127746  0.90508667  0.99357878     0.43400
H476        H  0.16053354  0.97192832  0.14865091     0.43300
C477        C  0.10988431  0.79813663  0.08557636    -0.05800
C478        C  0.10854894  0.79974373  0.13054353    -0.33200
C479        C  0.08196150  0.78305892  0.15349978     0.36100
C480        C  0.05559962  0.76531084  0.13146794    -0.06100
C481        C  0.05627956  0.76432184  0.08653468    -0.33100
C482        C  0.08368940  0.78004314  0.06350106     0.36000
H483        H  0.12886963  0.81299660  0.14797001     0.16300
O484        O  0.08257427  0.78315564  0.19751685    -0.60600
H485        H  0.03615423  0.75053034  0.06941801     0.16400
O486        O  0.08430991  0.77821805  0.01951583    -0.60700
H487        H  0.09457867  0.75605279  0.01210276     0.43400
H488        H  0.07114360  0.80426541  0.20699571     0.43300
C489        C  0.01960107  0.68055535  0.24195133    -0.05800
C490        C  0.99925255  0.65080182  0.24793689    -0.33200
C491        C  0.01193796  0.62333221  0.26987101     0.36100
C492        C  0.04527001  0.62511471  0.28706312    -0.06100
C493        C  0.06472759  0.65530961  0.28425732    -0.33100
C494        C  0.05186281  0.68315400  0.26286461     0.36000
H495        H  0.47461873  0.64762958  0.23017191     0.16300
O496        O  0.49119155  0.59413710  0.26901058    -0.60600
H497        H  0.09013644  0.65723146  0.29840627     0.16400
O498        O  0.07102935  0.71283741  0.26239502    -0.60700
H499        H  0.09272715  0.70779017  0.24600052     0.43400
H500        H  0.49839184  0.57928332  0.24458867     0.43300
C501        C  0.19560109  0.51791319  0.23240172    -0.05800
C502        C  0.18109100  0.49892095  0.26636718    -0.33200
C503        C  0.15166678  0.51009263  0.28963873     0.36100
C504        C  0.13636627  0.54100370  0.27934417    -0.06100
C505        C  0.15155650  0.56005252  0.24586183    -0.33100
C506        C  0.18073563  0.54896831  0.22285242     0.36000
H507        H  0.19396319  0.97540242  0.26510061     0.16300
O508        O  0.13932582  0.98984008  0.31205150    -0.60600
H509        H  0.14090770  0.58400194  0.23712246     0.16400
O510        O  0.19495150  0.56936403  0.19169194    -0.60700
H511        H  0.21064306  0.58539497  0.20706919     0.43400
H512        H  0.12326626  0.97450413  0.29615161     0.43300
C513        C  0.26633231  0.56851386  0.13818831    -0.05800
C514        C  0.25493594  0.57474690  0.09662641    -0.33200
C515        C  0.26141352  0.60640458  0.07758320     0.36100
C516        C  0.27982382  0.63204589  0.10015204    -0.06100
C517        C  0.28817099  0.62655568  0.14303092    -0.33100
C518        C  0.28141953  0.59535282  0.16210501     0.36000
H519        H  0.24268775  0.55456378  0.07811202     0.16300
O520        O  0.25208786  0.61101161  0.03596132    -0.60600
H521        H  0.30106334  0.64631489  0.16163787     0.16400
O522        O  0.28940558  0.59131709  0.20440637    -0.60700
H523        H  0.31512787  0.59214125  0.20528772     0.43400
H524        H  0.22754911  0.61802809  0.03785894     0.43300
C525        C  0.37543216  0.71377095  0.08707506    -0.05800
C526        C  0.38142863  0.74500934  0.10793658    -0.33200
C527        C  0.41290448  0.75167780  0.12881465     0.36100
C528        C  0.43866832  0.72690537  0.12855534    -0.06100
C529        C  0.43359034  0.69707341  0.10423212    -0.33100
C530        C  0.40223719  0.69027743  0.08407034     0.36000
H531        H  0.36084948  0.76318272  0.11068823     0.16300
O532        O  0.41669160  0.78081147  0.15286658    -0.60600
H533        H  0.45339518  0.67804860  0.10274521     0.16400
O534        O  0.39724186  0.65960210  0.06369503    -0.60700
H535        H  0.40081029  0.66415014  0.03270306     0.43400
H536        H  0.42348507  0.79853126  0.13200023     0.43300
C537        C  0.35436346  0.94152911  0.57526728    -0.05800
C538        C  0.33221407  0.92126347  0.60119856    -0.33200
C539        C  0.30492573  0.93546079  0.62551270     0.36100
C540        C  0.29924116  0.97038025  0.62393355    -0.06100
C541        C  0.31962715  0.99016820  0.59580123    -0.33100
C542        C  0.34680526  0.97616438  0.57150072     0.36000
H543        H  0.33700545  0.89456648  0.60435459     0.16300
O544        O  0.28558533  0.91541154  0.65285901    -0.60600
H545        H  0.31550293  0.01711836  0.59423384     0.16400
O546        O  0.36732962  0.99733142  0.54689197    -0.60700
H547        H  0.35588602  0.99789306  0.51875003     0.43400
H548        H  0.30036862  0.91247783  0.67808583     0.43300
C549        C  0.47384587  0.80300706  0.62327363    -0.05800
C550        C  0.49315875  0.83323243  0.61647776    -0.33200
C551        C  0.47952907  0.85988836  0.59407939     0.36100
C552        C  0.44590116  0.85715399  0.57781444    -0.06100
C553        C  0.42681041  0.82691212  0.58273932    -0.33100
C554        C  0.44065636  0.79981922  0.60470222     0.36000
H555        H  0.02459737  0.82944817  0.60816208     0.16300
O556        O  0.49854547  0.88951117  0.59079728    -0.60600
H557        H  0.40104508  0.82432554  0.56969658     0.16400
O558        O  0.42146811  0.77029949  0.60814958    -0.60700
H559        H  0.40197888  0.77547939  0.62836817     0.43400
H560        H  0.01928228  0.87651843  0.54341908     0.43300
C561        C  0.22809662  0.93689551  0.73334044    -0.05800
C562        C  0.25267320  0.91690671  0.75292457    -0.33200
C563        C  0.24305132  0.88537049  0.76996954     0.36100
C564        C  0.20833918  0.87354297  0.76760406    -0.06100
C565        C  0.18380862  0.89406337  0.74864742    -0.33100
C566        C  0.19340143  0.92558560  0.73213296     0.36000
H567        H  0.27948787  0.92559751  0.75444045     0.16300
O568        O  0.26803423  0.86571849  0.78686801    -0.60600
H569        H  0.15683126  0.88589234  0.74717646     0.16400
O570        O  0.16843338  0.94557792  0.71597961    -0.60700
H571        H  0.15947250  0.95893089  0.74090190     0.43400
H572        H  0.27041620  0.87389975  0.81693132     0.43300
C573        C  0.12780437  0.77712762  0.75682123    -0.05800
C574        C  0.09989910  0.76216821  0.77996967    -0.33200
C575        C  0.06884798  0.75296442  0.75933344     0.36100
C576        C  0.06565601  0.75869813  0.71510611    -0.06100
C577        C  0.09474626  0.77071667  0.69160689    -0.33100
C578        C  0.12543284  0.77997284  0.71197904     0.36000
H579        H  0.10126667  0.75973477  0.81444758     0.16300
O580        O  0.04087664  0.74154459  0.78334312    -0.60600
H581        H  0.09313352  0.77448579  0.65735771     0.16400
O582        O  0.15244358  0.79341156  0.68789715    -0.60700
H583        H  0.16787981  0.77419740  0.68131988     0.43400
H584        H  0.04481204  0.71712264  0.78721368     0.43300
C585        C  0.12831384  0.53650343  0.58755644    -0.05800
C586        C  0.13331999  0.50277248  0.59874289    -0.33200
C587        C  0.16418074  0.99382247  0.62068602     0.36100
C588        C  0.18925741  0.51813963  0.62985542    -0.06100
C589        C  0.18571940  0.55090076  0.61372559    -0.33100
C590        C  0.15547701  0.56026771  0.59354537     0.36000
H591        H  0.11435063  0.98536497  0.59184350     0.16300
O592        O  0.16654529  0.96068040  0.63181396    -0.60600
H593        H  0.20594021  0.56998471  0.61829018     0.16400
O594        O  0.15266211  0.59281361  0.57971548    -0.60700
H595        H  0.14938846  0.60682550  0.60611873     0.43400
H596        H  0.17456150  0.94872821  0.60529469     0.43300
C597        C  0.03488244  0.61906674  0.59844168    -0.05800
C598        C  0.00530347  0.63387177  0.58166678    -0.33200
C599        C  0.99292378  0.66481945  0.59813995     0.36100
C600        C  0.01004285  0.68162199  0.63227801    -0.06100
C601        C  0.03872599  0.66620681  0.64992833    -0.33100
C602        C  0.05107623  0.63546729  0.63364975     0.36000
H603        H  0.99184614  0.62172108  0.55524713     0.16300
O604        O  0.45964733  0.67211397  0.59783513    -0.60600
H605        H  0.05266199  0.67848421  0.67584646     0.16400
O606        O  0.07890799  0.62164703  0.65301509    -0.60700
H607        H  0.09947543  0.63488743  0.64260707     0.43400
H608        H  0.46187097  0.68172074  0.56870789     0.43300
C609        C  0.29508265  0.62029579  0.78319037    -0.05800
C610        C  0.27263941  0.59769809  0.80485719    -0.33200
C611        C  0.26048408  0.56789534  0.78451886     0.36100
C612        C  0.27124398  0.56016765  0.74171020    -0.06100
C613        C  0.29117484  0.58474550  0.71938070    -0.33100
C614        C  0.30364899  0.61397431  0.73977443     0.36000
H615        H  0.26464566  0.60300873  0.83779965     0.16300
O616        O  0.23629972  0.54813310  0.80581534    -0.60600
H617        H  0.29724331  0.58140802  0.68549153     0.16400
O618        O  0.32272923  0.63712611  0.71626566    -0.60700
H619        H  0.34569407  0.62680353  0.71108544     0.43400
H620        H  0.24871903  0.53833077  0.83003141     0.43300
C621        C  0.39041345  0.70241106  0.79729087    -0.05800
C622        C  0.39829289  0.73722528  0.79871680    -0.33200
C623        C  0.42660678  0.75047471  0.77513578     0.36100
C624        C  0.44721407  0.72883435  0.74925332    -0.06100
C625        C  0.44191647  0.69385003  0.75201315    -0.33100
C626        C  0.41378953  0.68052546  0.77577907     0.36000
H627        H  0.38129905  0.75449638  0.81588304     0.16300
O628        O  0.43272847  0.78476102  0.77583748    -0.60600
H629        H  0.45797207  0.67674231  0.73318977     0.16400
O630        O  0.40888023  0.64608641  0.77686841    -0.60700
H631        H  0.40134012  0.63923869  0.74771608     0.43400
H632        H  0.45381306  0.78829708  0.79315454     0.43300
C633        C  0.80741790  0.14961474  0.80397986     0.79900
N634        N  0.83907448  0.16163681  0.79147190    -0.78400
C635        C  0.85273452  0.19061206  0.80812275     0.82400
N636        N  0.83364846  0.20844347  0.83773427    -0.78300
C637        C  0.80172541  0.19649735  0.85119062     0.82500
N638        N  0.78873709  0.16696137  0.83423702    -0.80000
C639        C  0.54893123  0.08410447  0.58050792     0.79900
N640        N  0.58013708  0.07286235  0.59287457    -0.78400
C641        C  0.59412744  0.04446484  0.57537743     0.82400
N642        N  0.57649673  0.02685777  0.54467909    -0.78300
C643        C  0.54540174  0.03799577  0.53117613     0.82500
N644        N  0.53179414  0.06662508  0.54911433    -0.80000
C645        C  0.65008174  0.29593555  0.78807446     0.79900
N646        N  0.66724627  0.27992807  0.81910848    -0.78400
C647        C  0.69675733  0.29411251  0.83542918     0.82400
N648        N  0.70919250  0.32417798  0.82006576    -0.78300
C649        C  0.69214434  0.34026684  0.78885688     0.82500
N650        N  0.66244755  0.32607557  0.77354744    -0.80000
C651        C  0.88552669  0.42876094  0.55202657     0.79900
N652        N  0.90570435  0.44760679  0.52465509    -0.78400
C653        C  0.93718340  0.43658867  0.51068034     0.82400
N654        N  0.94868817  0.40671575  0.52442227    -0.78300
C655        C  0.92900640  0.38760329  0.55167201     0.82500
N656        N  0.89743365  0.39866470  0.56537976    -0.80000
C657        C  0.98381084  0.27530530  0.64506995     0.86200
C658        C  0.51790858  0.28035416  0.66882388    -0.54000
C659        C  0.52850660  0.25610615  0.69582495     0.09100
C660        C  0.50397180  0.22501809  0.69762590     0.20100
C661        C  0.98790314  0.24114152  0.62162345    -0.54800
C662        C  0.49972817  0.21289227  0.65037859     0.09200
C663        C  0.95888689  0.26840393  0.68301028    -0.54300
C664        C  0.96834759  0.24287290  0.70870850     0.09800
H665        H  0.53181483  0.30437304  0.66670885     0.14300
H666        H  0.51260685  0.20545612  0.71983823     0.00100
H667        H  0.98541108  0.23854944  0.58713893     0.14600
H668        H  0.93481085  0.28176711  0.68805244     0.14400
C669        C  0.76141864  0.02536108  0.71636304     0.86200
C670        C  0.72981482  0.03346063  0.69010424    -0.54000
C671        C  0.71874517  0.00850772  0.66238925     0.09100
C672        C  0.73857912  0.47609082  0.66848539     0.20100
C673        C  0.75198147  0.49376935  0.74209875    -0.54800
C674        C  0.73858154  0.46819970  0.71703896     0.09200
C675        C  0.78896677  0.01355186  0.68320026    -0.54300
C676        C  0.77668597  0.48582554  0.65765390     0.09800
H677        H  0.71731796  0.05771195  0.69351579     0.14300
H678        H  0.72860459  0.45507531  0.64800078     0.00100
H679        H  0.75478116  0.49133311  0.77644916     0.14600
H680        H  0.81532102  0.02389282  0.68194262     0.14400
O681        O  0.79156722  0.24521506  0.89550601    -0.74700
O682        O  0.73470982  0.29756284  0.97326561    -0.74700
O683        O  0.78473350  0.25085440  0.98229480    -0.74800
O684        O  0.74152343  0.29170218  0.88672429    -0.74900
O685        O  0.70088938  0.25066412  0.88684841    -0.74800
O686        O  0.74406911  0.20985932  0.98234991    -0.74800
O687        O  0.69406842  0.25654539  0.97363154    -0.74700
O688        O  0.75094415  0.20418522  0.89534526    -0.74800
Ni689      Ni  0.76456326  0.27277499  0.93449459     1.25400
Ni690      Ni  0.72107090  0.22882798  0.93455206     1.25400
C691        C  0.78049406  0.21617057  0.88233356     0.87500
C692        C  0.70506854  0.28582372  0.98616169     0.87400
C693        C  0.77157315  0.22356243  0.99796332     0.87400
C694        C  0.71401560  0.27794861  0.87118417     0.87600
O695        O  0.99688282  0.44992748  0.38481391    -0.74700
O696        O  0.54246524  0.49763399  0.48048711    -0.74700
O697        O  0.98957340  0.44667986  0.47088731    -0.74800
O698        O  0.54616426  0.49928622  0.39326928    -0.74900
O699        O  0.50531149  0.03519423  0.39448124    -0.74800
O700        O  0.94889740  0.48591913  0.47014980    -0.74800
O701        O  0.49945117  0.03180443  0.48118695    -0.74700
O702        O  0.95627170  0.48921110  0.38384865    -0.74800
Ni703      Ni  0.52067187  0.47256484  0.43473796     1.25400
Ni704      Ni  0.98055231  0.01505183  0.42888069     1.25400
C705        C  0.96961806  0.46198224  0.36870841     0.87500
C706        C  0.52736256  0.01987988  0.49601979     0.87400
C707        C  0.95960058  0.45742572  0.48259460     0.87400
C708        C  0.53446653  0.02391361  0.38067003     0.87600
C709        C  0.78994367  0.16389549  0.08492318     0.79900
N710        N  0.82148565  0.17580757  0.09725979    -0.78400
C711        C  0.83682625  0.20314164  0.07876747     0.82400
N712        N  0.82028630  0.21913942  0.04714176    -0.78300
C713        C  0.78863785  0.20736300  0.03395125     0.82500
N714        N  0.77367151  0.17951779  0.05269293    -0.80000
C715        C  0.55937680  0.09231031  0.30668927     0.79900
N716        N  0.54172238  0.07349687  0.33611555    -0.78400
C717        C  0.55465550  0.04390816  0.34933345     0.82400
N718        N  0.58513402  0.03261151  0.33201606    -0.78300
C719        C  0.60293918  0.05126258  0.30209636     0.82500
N720        N  0.58982205  0.08113757  0.28998171    -0.80000
C721        C  0.67753465  0.35647552  0.05810029     0.79900
N722        N  0.69539360  0.33771511  0.02842624    -0.78400
C723        C  0.68385226  0.30632930  0.01635555     0.82400
N724        N  0.65400996  0.29343691  0.03438079    -0.78300
C725        C  0.63601326  0.31186220  0.06433376     0.82500
N726        N  0.64809934  0.34304192  0.07625778    -0.80000
C727        C  0.95434972  0.39835145  0.28281857     0.79900
N728        N  0.92642473  0.41093102  0.26382360    -0.78400
C729        C  0.91159570  0.43975859  0.27844629     0.82400
N730        N  0.92548310  0.45639893  0.31286971    -0.78300
C731        C  0.95386098  0.44403191  0.33211539     0.82500
N732        N  0.96801416  0.41476578  0.31721460    -0.80000
C733        C  0.50663511  0.20761335  0.21732586     0.86200
C734        C  0.53453124  0.21927089  0.18447216    -0.54000
C735        C  0.52563905  0.24648883  0.16135193     0.09100
C736        C  0.99228321  0.26042149  0.16135973     0.20100
C737        C  0.49812207  0.23953118  0.24401474    -0.54800
C738        C  0.99342798  0.26912946  0.20986579     0.09200
C739        C  0.97880228  0.20261464  0.18193331    -0.54300
C740        C  0.96848601  0.22874396  0.15761968     0.09800
H741        H  0.55991608  0.20805464  0.18098118     0.14300
H742        H  0.98409230  0.28090089  0.14043566     0.00100
H743        H  0.50015632  0.24058190  0.27869407     0.14600
H744        H  0.96480787  0.17863956  0.18138570     0.14400
C745        C  0.78419677  0.48314785  0.19825188     0.86200
C746        C  0.79312141  0.02018124  0.17637426    -0.54000
C747        C  0.76469935  0.03277733  0.15727673     0.09100
C748        C  0.73214073  0.00944632  0.16130745     0.20100
C749        C  0.75262597  0.49062141  0.22796901    -0.54800
C750        C  0.72667187  0.00590330  0.21022482     0.09200
C751        C  0.76908228  0.45867427  0.16435184    -0.54300
C752        C  0.74146230  0.47059976  0.14332695     0.09800
H753        H  0.81822438  0.03312360  0.17523812     0.14300
H754        H  0.70918532  0.01872140  0.14458327     0.00100
H755        H  0.75239803  0.48693299  0.26239392     0.14600
H756        H  0.77697102  0.43272306  0.15966694     0.14400
C757        C  0.87983923  0.45168353  0.25758533    -0.05800
C758        C  0.86007836  0.47763208  0.27650993    -0.33200
C759        C  0.82917859  0.48784029  0.25805010     0.36100
C760        C  0.81669492  0.47137134  0.22053519    -0.06100
C761        C  0.83770855  0.44673980  0.20069489    -0.33100
C762        C  0.86845349  0.43674143  0.21873422     0.36000
H763        H  0.86847132  0.49009508  0.30581691     0.16300
O764        O  0.83058507  0.03080367  0.25417740    -0.60600
H765        H  0.83150900  0.43557861  0.16992234     0.16400
O766        O  0.88714703  0.41225871  0.19749218    -0.60700
H767        H  0.90255220  0.42462373  0.17691092     0.43400
H768        H  0.85012775  0.04375926  0.24060876     0.43300
C769        C  0.96829002  0.36631088  0.26654960    -0.05800
C770        C  0.98177467  0.36442299  0.22457539    -0.33200
C771        C  0.99140277  0.33338033  0.20614732     0.36100
C772        C  0.98571801  0.30313524  0.22915986    -0.06100
C773        C  0.97237632  0.30548825  0.27161908    -0.33100
C774        C  0.96408861  0.33674440  0.29038639     0.36000
H775        H  0.98485229  0.38719873  0.20591927     0.16300
O776        O  0.50515795  0.33107395  0.17982024    -0.60600
H777        H  0.96728026  0.28299661  0.29018084     0.16400
O778        O  0.95056028  0.33798992  0.33146688    -0.60700
H779        H  0.92504453  0.33588230  0.32834243     0.43400
H780        H  0.52810989  0.34198175  0.18510133     0.43300
C781        C  0.69152327  0.38984989  0.07379218    -0.05800
C782        C  0.67277500  0.40834173  0.10536878    -0.33200
C783        C  0.68746606  0.43704414  0.12550843     0.36100
C784        C  0.72152697  0.44762451  0.11452067    -0.06100
C785        C  0.73930453  0.43083066  0.08100334    -0.33100
C786        C  0.72454116  0.40251938  0.06032789     0.35400
H787        H  0.64721103  0.39970125  0.11610235     0.16300
O788        O  0.66966604  0.45236865  0.15881896    -0.60600
H789        H  0.76563960  0.43867112  0.07236274     0.16400
O790        O  0.74375612  0.38633173  0.02897946    -0.60700
H791        H  0.73765124  0.39722916  0.00183936     0.43400
H792        H  0.65671664  0.47068873  0.14550839     0.43300
C793        C  0.60613255  0.29672627  0.08804619    -0.05800
C794        C  0.60570690  0.29859215  0.13304290    -0.33200
C795        C  0.57906288  0.28288489  0.15698995     0.36100
C796        C  0.55190162  0.26558078  0.13597270    -0.06100
C797        C  0.55139456  0.26476027  0.09103716    -0.33100
C798        C  0.57863936  0.27984929  0.06696723     0.36000
H799        H  0.62675244  0.31132693  0.14974401     0.16300
O800        O  0.58042171  0.28336579  0.20097257    -0.60600
H801        H  0.53046629  0.25155032  0.07469584     0.16400
O802        O  0.57778836  0.27869725  0.02301959    -0.60700
H803        H  0.58762030  0.25655607  0.01453981     0.43400
H804        H  0.57194320  0.30584778  0.21024929     0.43300
C805        C  0.51869313  0.17870852  0.24513202    -0.05800
C806        C  0.49755891  0.14975624  0.25271595    -0.33200
C807        C  0.51005396  0.12213389  0.27455876     0.36100
C808        C  0.54416693  0.12287295  0.28945618    -0.06100
C809        C  0.56453845  0.15236157  0.28503114    -0.33100
C810        C  0.55176928  0.18047673  0.26420825     0.36000
H811        H  0.97554658  0.15183931  0.23703001     0.16300
O812        O  0.99331741  0.09839235  0.27540944    -0.60600
H813        H  0.59052499  0.15356712  0.29763589     0.16400
O814        O  0.57169303  0.20968021  0.26282655    -0.60700
H815        H  0.59288402  0.20401937  0.24574471     0.43400
H816        H  0.99606323  0.08414892  0.24910261     0.43300
C817        C  0.69505599  0.01709283  0.23404009    -0.05800
C818        C  0.68059985  0.99764116  0.26755892    -0.33200
C819        C  0.65081389  0.00817865  0.29046526     0.36100
C820        C  0.63515660  0.03890169  0.28020156    -0.06100
C821        C  0.65027384  0.05837614  0.24704517    -0.33100
C822        C  0.67983975  0.04790365  0.22442080     0.36000
H823        H  0.68878534  0.47171444  0.27182652     0.16300
O824        O  0.63372098  0.48690863  0.31761570    -0.60600
H825        H  0.63932099  0.08219895  0.23835080     0.16400
O826        O  0.69412303  0.06863960  0.19366491    -0.60700
H827        H  0.70981034  0.08447102  0.20936911     0.43400
H828        H  0.61697635  0.47134725  0.30318892     0.43300
C829        C  0.76502762  0.06797145  0.14101683    -0.05800
C830        C  0.75142049  0.07531099  0.10088396    -0.33200
C831        C  0.75652030  0.10760649  0.08309183     0.36100
C832        C  0.77567740  0.13280374  0.10552386    -0.06100
C833        C  0.78571931  0.12630913  0.14750172    -0.33100
C834        C  0.78062621  0.09440818  0.16523146     0.36000
H835        H  0.73850201  0.05554785  0.08235504     0.16300
O836        O  0.74507873  0.11329747  0.04260524    -0.60600
H837        H  0.79909064  0.14570979  0.16619239     0.16400
O838        O  0.79087033  0.08929786  0.20649180    -0.60700
H839        H  0.81656176  0.09165914  0.20564774     0.43400
H840        H  0.72132035  0.12206225  0.04690834     0.43300
C841        C  0.87249692  0.21277389  0.09125702    -0.05800
C842        C  0.87992840  0.24449940  0.11010390    -0.33200
C843        C  0.91198789  0.25097624  0.12982698     0.36100
C844        C  0.93705145  0.22551230  0.13057389    -0.06100
C845        C  0.93026825  0.19473865  0.10882117    -0.33100
C846        C  0.89834180  0.18820362  0.08971645     0.36000
H847        H  0.86009878  0.26347922  0.11197040     0.16300
O848        O  0.91713523  0.28096656  0.15168033    -0.60600
H849        H  0.94935189  0.17503248  0.10804071     0.16400
O850        O  0.89198274  0.15697450  0.07137046    -0.60700
H851        H  0.89725912  0.15976975  0.04033065     0.43400
H852        H  0.92287377  0.29781045  0.12927892     0.43300
C853        C  0.85323929  0.44276687  0.57188979    -0.05800
C854        C  0.82984562  0.42142675  0.59470136    -0.33200
C855        C  0.80288896  0.43480292  0.62043059     0.36100
C856        C  0.79900066  0.47000740  0.62370178    -0.06100
C857        C  0.82045801  0.49104885  0.59820843    -0.33100
C858        C  0.84719631  0.47786047  0.57242692     0.36000
H859        H  0.83340749  0.39434934  0.59427776     0.16300
O860        O  0.78207459  0.41338470  0.64430663    -0.60600
H861        H  0.81754776  0.51822063  0.59991806     0.16400
O862        O  0.86890098  0.49999811  0.55086192    -0.60700
H863        H  0.85792486  0.50318833  0.52279725     0.43400
H864        H  0.79429879  0.41079510  0.67165989     0.43300
C865        C  0.97082275  0.30285279  0.61591383    -0.05800
C866        C  0.99222663  0.33056279  0.60382652    -0.33200
C867        C  0.97908206  0.35760856  0.58178408     0.36100
C868        C  0.94391510  0.35750489  0.57067231    -0.06100
C869        C  0.92295148  0.32900901  0.57950596    -0.33100
C870        C  0.93627702  0.30152553  0.60114795     0.36000
H871        H  0.52144169  0.32317114  0.60455548     0.16300
O872        O  0.00047485  0.38508339  0.57382936    -0.60600
H873        H  0.89609900  0.32812487  0.56987661     0.16400
O874        O  0.91536503  0.27346062  0.60787225    -0.60700
H875        H  0.89628863  0.28098426  0.62745199     0.43400
H876        H  0.51463015  0.37101153  0.54026726     0.43300
C877        C  0.72686540  0.43551142  0.73544484    -0.05800
C878        C  0.75086183  0.41447124  0.75430862    -0.33200
C879        C  0.74006606  0.38371328  0.77269464     0.36100
C880        C  0.70475555  0.37339334  0.77190974    -0.06100
C881        C  0.68081649  0.39505558  0.75374311    -0.33100
C882        C  0.69156016  0.42602948  0.73637176     0.36000
H883        H  0.77810081  0.42187222  0.75457419     0.16300
O884        O  0.76443950  0.36347158  0.78980175    -0.60600
H885        H  0.65342243  0.38827632  0.75365807     0.16400
O886        O  0.66713295  0.44732352  0.72162311    -0.60700
H887        H  0.66273849  0.46365824  0.74551965     0.43400
H888        H  0.76723135  0.37193968  0.81968620     0.43300
C889        C  0.61718584  0.28220131  0.77116898    -0.05800
C890        C  0.58864741  0.30345045  0.77080693    -0.33200
C891        C  0.55867518  0.29382019  0.74915442     0.36100
C892        C  0.55733807  0.26301682  0.72571313    -0.06100
C893        C  0.58495455  0.24066268  0.72840148    -0.33100
C894        C  0.61474185  0.24998232  0.75140611     0.36000
H895        H  0.58995128  0.32805665  0.78658847     0.16300
O896        O  0.53125473  0.31537253  0.74975370    -0.60600
H897        H  0.58431219  0.21685671  0.71086957     0.16400
O898        O  0.64234881  0.22872561  0.75128592    -0.60700
H899        H  0.63751951  0.21329552  0.77553383     0.43400
H900        H  0.51381245  0.30522219  0.76986961     0.43300
C901        C  0.62847938  0.03356611  0.59004602    -0.05800
C902        C  0.63479138  0.99945183  0.59822527    -0.33200
C903        C  0.66392640  0.49256978  0.62417065     0.36100
C904        C  0.68971802  0.01500440  0.63216631    -0.06100
C905        C  0.68491287  0.04843732  0.61893868    -0.33100
C906        C  0.65465113  0.05782458  0.59885807     0.36000
H907        H  0.61346460  0.48432788  0.59685957     0.16300
O908        O  0.66590440  0.45965115  0.63642898    -0.60600
H909        H  0.70433846  0.06797666  0.62520126     0.16400
O910        O  0.65104096  0.09088870  0.58746920    -0.60700
H911        H  0.64709235  0.10355690  0.61480411     0.43400
H912        H  0.67288116  0.44691785  0.61005342     0.43300
C913        C  0.53450163  0.11573506  0.60040663    -0.05800
C914        C  0.50540737  0.13091268  0.58297388    -0.33200
C915        C  0.49287746  0.16177981  0.59956920     0.36100
C916        C  0.50965151  0.17842508  0.63414170    -0.06100
C917        C  0.53742500  0.16230691  0.65288185    -0.33100
C918        C  0.54979355  0.13150998  0.63665580     0.36000
H919        H  0.49235672  0.11904145  0.55605110     0.16300
O920        O  0.96527974  0.17852031  0.57589604    -0.60600
H921        H  0.55054446  0.17390893  0.67978241     0.16400
O922        O  0.57652753  0.11683964  0.65728523    -0.60700
H923        H  0.59742364  0.13095889  0.65034777     0.43400
H924        H  0.97261650  0.18620465  0.54688012     0.43300
C925        C  0.79356717  0.11872548  0.78256150    -0.05800
C926        C  0.77463390  0.09414418  0.80563227    -0.33200
C927        C  0.76421518  0.06341994  0.78583923     0.36100
C928        C  0.77316112  0.05679285  0.74208627    -0.06100
C929        C  0.78984412  0.08293407  0.71882126    -0.33100
C930        C  0.80049393  0.11311728  0.73856195     0.36000
H931        H  0.76815303  0.09859010  0.83923734     0.16300
O932        O  0.74340032  0.04150203  0.80888815    -0.60600
H933        H  0.79450906  0.08018796  0.68454653     0.16400
O934        O  0.81609145  0.13783706  0.71393902    -0.60700
H935        H  0.83921671  0.12908943  0.70546173     0.43400
H936        H  0.75855448  0.03212159  0.83084742     0.43300
C937        C  0.88672782  0.20338029  0.79048080    -0.05800
C938        C  0.89536549  0.23803037  0.79247775    -0.33200
C939        C  0.92393728  0.25107927  0.76891607     0.36100
C940        C  0.94421821  0.22945148  0.74248132    -0.06100
C941        C  0.93772316  0.19460835  0.74385440    -0.33100
C942        C  0.90932573  0.18147576  0.76741385     0.36000
H943        H  0.87896718  0.25533230  0.81049954     0.16300
O944        O  0.93086202  0.28521967  0.77049984    -0.60600
H945        H  0.95324073  0.17751973  0.72427758     0.16400
O946        O  0.90362702  0.14711386  0.76706630    -0.60700
H947        H  0.89578693  0.14124078  0.73772754     0.43400
H948        H  0.95095906  0.28810394  0.78963152     0.43300
C949        C  0.81301776  0.64772700  0.80749175     0.79900
N950        N  0.84510298  0.66004572  0.79697050    -0.78400
C951        C  0.85745349  0.68967706  0.81331791     0.82400
N952        N  0.83687457  0.70760529  0.84107576    -0.78300
C953        C  0.80470947  0.69537247  0.85301921     0.82500
N954        N  0.79278102  0.66541818  0.83598112    -0.80000
C955        C  0.55257368  0.58921028  0.58036342     0.79900
N956        N  0.58328838  0.57715342  0.59319008    -0.78400
C957        C  0.59661080  0.54842920  0.57588106     0.82400
N958        N  0.57882083  0.53123974  0.54499504    -0.78300
C959        C  0.54816720  0.54310337  0.53109034     0.82500
N960        N  0.53512514  0.57203617  0.54892459    -0.80000
C961        C  0.65640095  0.79265995  0.78410803     0.79900
N962        N  0.67180092  0.77904387  0.81823574    -0.78400
C963        C  0.70046632  0.79436417  0.83521762     0.82400
N964        N  0.71323013  0.82377464  0.81833260    -0.78300
C965        C  0.69747842  0.83778798  0.78447961     0.82500
N966        N  0.66927992  0.82188923  0.76759235    -0.80000
C967        C  0.89218960  0.93293475  0.55553024     0.79900
N968        N  0.91194478  0.95140287  0.52720743    -0.78400
C969        C  0.94314791  0.93999664  0.51239291     0.82400
N970        N  0.95479749  0.91014687  0.52642747    -0.78300
C971        C  0.93544827  0.89138975  0.55453743     0.82500
N972        N  0.90418979  0.90286069  0.56882333    -0.80000
C973        C  0.98636078  0.77580341  0.64626752     0.86200
C974        C  0.52196458  0.78128476  0.67389494    -0.54000
C975        C  0.53138995  0.75582558  0.69969505     0.09100
C976        C  0.50538079  0.72610015  0.70138974     0.20100
C977        C  0.98985604  0.74130788  0.62328332    -0.54800
C978        C  0.50099342  0.71520542  0.65403395     0.09200
C979        C  0.96133924  0.76935716  0.68445669    -0.54300
C980        C  0.97046818  0.74381391  0.71054864     0.09800
H981        H  0.53856306  0.80349759  0.67081952     0.14300
H982        H  0.51348368  0.70545340  0.72239819     0.00100
H983        H  0.98689762  0.73825450  0.58890808     0.14600
H984        H  0.93751784  0.78309062  0.68931472     0.14400
C985        C  0.76360676  0.52522587  0.71696117     0.86200
C986        C  0.73206467  0.53469554  0.69128831    -0.54000
C987        C  0.71894260  0.50965242  0.66503151     0.09100
C988        C  0.74038985  0.97601808  0.66538386     0.20100
C989        C  0.75121516  0.99274576  0.74004011    -0.54800
C990        C  0.73986017  0.96709603  0.71363938     0.09200
C991        C  0.78963678  0.51102270  0.68342285    -0.54300
C992        C  0.77827555  0.98795678  0.65640053     0.09800
H993        H  0.72129569  0.55979653  0.69370693     0.14300
H994        H  0.73211905  0.95488913  0.64394209     0.00100
H995        H  0.75390447  0.98904095  0.77410030     0.14600
H996        H  0.81678156  0.51880144  0.68121615     0.14400
O997        O  0.79401763  0.74439268  0.89585121    -0.74700
O998        O  0.73915375  0.79851516  0.97329897    -0.74700
O999        O  0.78735977  0.74967038  0.98223575    -0.74800
O1000       O  0.74517354  0.79217069  0.88692514    -0.74900
O1001       O  0.70376216  0.75186136  0.88732323    -0.74800
O1002       O  0.74558847  0.70973200  0.98215889    -0.74800
O1003       O  0.69732963  0.75864957  0.97374762    -0.74700
O1004       O  0.75268678  0.70404689  0.89550042    -0.74800
Ni1005     Ni  0.76788074  0.77259366  0.93465872     1.25400
Ni1006     Ni  0.72332553  0.72965938  0.93475228     1.25400
C1007       C  0.78265098  0.71542436  0.88291261     0.87500
C1008       C  0.70907268  0.78787122  0.98582637     0.87400
C1009       C  0.77375996  0.72227202  0.99721544     0.87400
C1010       C  0.71735844  0.77884303  0.87157115     0.87600
O1011       O  0.00035576  0.95075337  0.38277651    -0.74700
O1012       O  0.54024162  0.99267661  0.48019457    -0.74700
O1013       O  0.99443729  0.94895147  0.46950563    -0.74800
O1014       O  0.54574248  0.99566446  0.39334585    -0.74900
O1015       O  0.50564209  0.53869619  0.39432627    -0.74800
O1016       O  0.95386061  0.98826144  0.46898747    -0.74800
O1017       O  0.50172763  0.53680239  0.48159531    -0.74700
O1018       O  0.95983249  0.99013679  0.38230808    -0.74800
Ni1019     Ni  0.51923867  0.96842463  0.43320659     1.25400
Ni1020     Ni  0.97619615  0.51341397  0.43173961     1.25400
C1021       C  0.97273774  0.96265684  0.36735426     0.87500
C1022       C  0.52979451  0.52498454  0.49615576     0.87400
C1023       C  0.96482866  0.96006970  0.48222061     0.87400
C1024       C  0.53453811  0.52719724  0.37987202     0.87600
C1025       C  0.79461123  0.65791490  0.07766227     0.79900
N1026       N  0.82635642  0.66948968  0.08979182    -0.78400
C1027       C  0.84079739  0.69806489  0.07328033     0.82400
N1028       N  0.82317930  0.71566022  0.04418440    -0.78300
C1029       C  0.79145514  0.70425897  0.03112898     0.82500
N1030       N  0.77725531  0.67518686  0.04773943    -0.80000
C1031       C  0.55937251  0.59352732  0.30214132     0.79900
N1032       N  0.54173281  0.57590246  0.33290871    -0.78400
C1033       C  0.55421085  0.54626267  0.34688950     0.82400
N1034       N  0.58393177  0.53377786  0.32883233    -0.78300
C1035       C  0.60144633  0.55113075  0.29745082     0.82500
N1036       N  0.58896063  0.58104705  0.28474911    -0.80000
C1037       C  0.68163744  0.86035869  0.05565390     0.79900
N1038       N  0.70015183  0.84081153  0.02727080    -0.78400
C1039       C  0.68797075  0.80962557  0.01474986     0.82400
N1040       N  0.65706279  0.79790831  0.03090583    -0.78300
C1041       C  0.63849649  0.81700148  0.05941251     0.82500
N1042       N  0.65106193  0.84785716  0.07193687    -0.80000
C1043       C  0.95205381  0.89784102  0.28414079     0.79900
N1044       N  0.92256797  0.91003559  0.26845317    -0.78400
C1045       C  0.90895098  0.93902632  0.28437825     0.82400
N1046       N  0.92562664  0.95635262  0.31610983    -0.78300
C1047       C  0.95538885  0.94432153  0.33218646     0.82500
N1048       N  0.96843805  0.91479662  0.31636456    -0.80000
C1049       C  0.51014402  0.70853066  0.20874548     0.86200
C1050       C  0.53818789  0.72027118  0.17602808    -0.54000
C1051       C  0.52932915  0.74769552  0.15309400     0.09100
C1052       C  0.99156161  0.75904092  0.16388874     0.20100
C1053       C  0.50184001  0.74029414  0.23570413    -0.54800
C1054       C  0.99018803  0.76794167  0.21231119     0.09200
C1055       C  0.97672209  0.70141617  0.18433860    -0.54300
C1056       C  0.96795191  0.72740473  0.15880192     0.09800
H1057       H  0.56362985  0.70914350  0.17279579     0.14300
H1058       H  0.98457146  0.77970898  0.14242509     0.00100
H1059       H  0.50373128  0.74118293  0.27041338     0.14600
H1060       H  0.96241984  0.67763541  0.18308967     0.14400
C1061       C  0.78621712  0.98718794  0.20052902     0.86200
C1062       C  0.79175943  0.51597167  0.17436933    -0.54000
C1063       C  0.76402027  0.52877996  0.15417226     0.09100
C1064       C  0.73088247  0.50633635  0.15826174     0.20100
C1065       C  0.75490775  0.99410536  0.23045555    -0.54800
C1066       C  0.72488349  0.50322875  0.20718348     0.09200
C1067       C  0.77229229  0.96307722  0.16543501    -0.54300
C1068       C  0.74380080  0.97415835  0.14529209     0.09800
H1069       H  0.81703210  0.52868357  0.17467922     0.14300
H1070       H  0.70834555  0.51587925  0.14095137     0.00100
H1071       H  0.75555802  0.99106209  0.26499395     0.14600
H1072       H  0.78347551  0.93894394  0.15683671     0.14400
C1073       C  0.87613441  0.95103799  0.26703305    -0.05800
C1074       C  0.86818543  0.98542798  0.26912907    -0.33200
C1075       C  0.83871296  0.99735248  0.24908003     0.36100
C1076       C  0.81719129  0.97481506  0.22518454    -0.06100
C1077       C  0.82338089  0.94000680  0.22755276    -0.33100
C1078       C  0.85254055  0.92815220  0.24759993     0.36000
H1079       H  0.88509465  0.00327476  0.28574383     0.16300
O1080       O  0.81149133  0.51401587  0.27706010    -0.60600
H1081       H  0.80540949  0.92133806  0.21472304     0.16400
O1082       O  0.85685412  0.89388500  0.24960974    -0.60700
H1083       H  0.86518036  0.88682847  0.22053142     0.43400
H1084       H  0.82079361  0.53467623  0.26293378     0.43300
C1085       C  0.96427011  0.86519814  0.26764830    -0.05800
C1086       C  0.98228423  0.86351838  0.22822212    -0.33200
C1087       C  0.99109698  0.83221305  0.20967936     0.36100
C1088       C  0.98118693  0.80187521  0.23048933    -0.06100
C1089       C  0.96253618  0.80395156  0.26979386    -0.33100
C1090       C  0.95390778  0.83524473  0.28813825     0.36000
H1091       H  0.98934519  0.88657646  0.21158179     0.16300
O1092       O  0.51413029  0.83194190  0.17554786    -0.60600
H1093       H  0.95382562  0.78119844  0.28597914     0.16400
O1094       O  0.93458115  0.83631970  0.32563295    -0.60700
H1095       H  0.91007358  0.83676497  0.31663513     0.43400
H1096       H  0.53576056  0.84482968  0.18221695     0.43300
C1097       C  0.69575675  0.89356928  0.07230073    -0.05800
C1098       C  0.67604770  0.91253188  0.10254226    -0.33200
C1099       C  0.69030162  0.94106920  0.12364856     0.36100
C1100       C  0.72493309  0.95115662  0.11506788    -0.06100
C1101       C  0.74378259  0.93395371  0.08267905    -0.33100
C1102       C  0.72950202  0.90569669  0.06114832     0.35400
H1103       H  0.64990681  0.90439147  0.11154055     0.16300
O1104       O  0.67130601  0.95670210  0.15568139    -0.60600
H1105       H  0.77050253  0.94143086  0.07560383     0.16400
O1106       O  0.74976117  0.88904956  0.03126806    -0.60700
H1107       H  0.74466506  0.89953859  0.00351209     0.43400
H1108       H  0.65824502  0.97433814  0.14114537     0.43300
C1109       C  0.60816340  0.80205928  0.08215987    -0.05800
C1110       C  0.60755506  0.80296013  0.12714030    -0.33200
C1111       C  0.58166912  0.78549177  0.15034376     0.36100
C1112       C  0.55543790  0.76749879  0.12849927    -0.06100
C1113       C  0.55488550  0.76785381  0.08357907    -0.33100
C1114       C  0.58149845  0.78457759  0.06025497     0.36000
H1115       H  0.62814112  0.81596060  0.14438773     0.16300
O1116       O  0.58296499  0.78471757  0.19433446    -0.60600
H1117       H  0.53449417  0.75428911  0.06666332     0.16400
O1118       O  0.58101750  0.78416227  0.01626748    -0.60700
H1119       H  0.59080816  0.76211020  0.00729740     0.43400
H1120       H  0.57972406  0.80830681  0.20457139     0.43300
C1121       C  0.52152680  0.67925135  0.23644174    -0.05800
C1122       C  0.50039850  0.64999808  0.24258193    -0.33200
C1123       C  0.51195611  0.62262885  0.26562607     0.36100
C1124       C  0.54492428  0.62395234  0.28368922    -0.06100
C1125       C  0.56548353  0.65341205  0.27993002    -0.33100
C1126       C  0.55377825  0.68117958  0.25740719     0.36000
H1127       H  0.97338460  0.64802169  0.23585266     0.16300
O1128       O  0.99197186  0.59428493  0.27283651    -0.60600
H1129       H  0.59084504  0.65480645  0.29426077     0.16400
O1130       O  0.57388942  0.71025924  0.25634726    -0.60700
H1131       H  0.59505191  0.70448993  0.23928256     0.43400
H1132       H  0.99825364  0.58061493  0.24695088     0.43300
C1133       C  0.69290263  0.51469766  0.23001042    -0.05800
C1134       C  0.67767386  0.49551975  0.26330378    -0.33200
C1135       C  0.64777776  0.50654919  0.28555302     0.36100
C1136       C  0.63292490  0.53759981  0.27507619    -0.06100
C1137       C  0.64832614  0.55642835  0.24149350    -0.33100
C1138       C  0.67786592  0.54538085  0.21931441     0.36000
H1139       H  0.69220069  0.97397810  0.27571582     0.16300
O1140       O  0.63770216  0.98845668  0.32301990    -0.60600
H1141       H  0.63773799  0.58028213  0.23226329     0.16400
O1142       O  0.69231682  0.56547908  0.18797002    -0.60700
H1143       H  0.70842169  0.58122689  0.20315165     0.43400
H1144       H  0.62332966  0.97067999  0.30870872     0.43300
C1145       C  0.76574734  0.56344556  0.13621241    -0.05800
C1146       C  0.75440263  0.56982839  0.09463906    -0.33200
C1147       C  0.76126620  0.60145906  0.07559596     0.36100
C1148       C  0.78008186  0.62684715  0.09813203    -0.06100
C1149       C  0.78844076  0.62119570  0.14094134    -0.33100
C1150       C  0.78123806  0.59011532  0.16004937     0.36000
H1151       H  0.74179778  0.54982033  0.07619064     0.16300
O1152       O  0.75177125  0.60631115  0.03409031    -0.60600
H1153       H  0.80159629  0.64078645  0.15954941     0.16400
O1154       O  0.78912771  0.58606368  0.20238143    -0.60700
H1155       H  0.81484897  0.58680236  0.20335506     0.43400
H1156       H  0.72767686  0.61456391  0.03632448     0.43300
C1157       C  0.87573299  0.70891529  0.08693584    -0.05800
C1158       C  0.88120297  0.74073776  0.10652737    -0.33200
C1159       C  0.91228058  0.74827589  0.12785320     0.36100
C1160       C  0.93830961  0.72385222  0.12920648    -0.06100
C1161       C  0.93379210  0.69328690  0.10620068    -0.33100
C1162       C  0.90277036  0.68562198  0.08561186     0.36000
H1163       H  0.86046265  0.75878790  0.10797756     0.16300
O1164       O  0.91537103  0.77799783  0.15084752    -0.60600
H1165       H  0.95378483  0.67445636  0.10604313     0.16400
O1166       O  0.89840140  0.65447194  0.06623698    -0.60700
H1167       H  0.90385814  0.65810512  0.03539301     0.43400
H1168       H  0.92235049  0.79525772  0.12945098     0.43300
C1169       C  0.85948175  0.94654293  0.57520279    -0.05800
C1170       C  0.83673114  0.92493523  0.59858730    -0.33200
C1171       C  0.80871181  0.93772657  0.62299400     0.36100
C1172       C  0.80282892  0.97268313  0.62434698    -0.06100
C1173       C  0.82410656  0.99400902  0.59895879    -0.33100
C1174       C  0.85196830  0.98132320  0.57438917     0.36000
H1175       H  0.84143865  0.89807826  0.59946623     0.16300
O1176       O  0.78870203  0.91606665  0.64751935    -0.60600
H1177       H  0.81990894  0.02100094  0.59949414     0.16400
O1178       O  0.87301888  0.00369124  0.55228367    -0.60700
H1179       H  0.86226827  0.00566555  0.52386069     0.43400
H1180       H  0.80130667  0.91407740  0.67470417     0.43300
C1181       C  0.97427856  0.80381249  0.61680681    -0.05800
C1182       C  0.99709726  0.82997973  0.60278871    -0.33200
C1183       C  0.98503110  0.85785424  0.58107637     0.36100
C1184       C  0.94950686  0.86022381  0.57241426    -0.06100
C1185       C  0.92714422  0.83297116  0.58264767    -0.33100
C1186       C  0.93935705  0.80462125  0.60367045     0.36000
H1187       H  0.51879695  0.83739185  0.62860024     0.16300
O1188       O  0.00799903  0.88363972  0.57093080    -0.60600
H1189       H  0.89997268  0.83372081  0.57457859     0.16400
O1190       O  0.91698553  0.77776850  0.61126325    -0.60700
H1191       H  0.89840801  0.78655155  0.63070760     0.43400
H1192       H  0.51495700  0.88584309  0.56626454     0.43300
C1193       C  0.72959185  0.93352922  0.73065352    -0.05800
C1194       C  0.75371840  0.91429449  0.75223335    -0.33200
C1195       C  0.74388105  0.88312246  0.77023876     0.36100
C1196       C  0.70943810  0.87071274  0.76656543    -0.06100
C1197       C  0.68543891  0.89034632  0.74520128    -0.33100
C1198       C  0.69516057  0.92161996  0.72803790     0.36000
H1199       H  0.78026957  0.92350621  0.75509118     0.16300
O1200       O  0.76836875  0.86461363  0.79001126    -0.60600
H1201       H  0.65861273  0.88189897  0.74271442     0.16400
O1202       O  0.67038112  0.94102093  0.71041572    -0.60700
H1203       H  0.66075498  0.95474099  0.73462258     0.43400
H1204       H  0.76898785  0.87363346  0.81987647     0.43300
C1205       C  0.62604207  0.77623927  0.76416211    -0.05800
C1206       C  0.59556331  0.76968380  0.78847204    -0.33200
C1207       C  0.56458623  0.76054818  0.76797602     0.36100
C1208       C  0.56425797  0.75774311  0.72291305    -0.06100
C1209       C  0.59525177  0.76194100  0.69910520    -0.33100
C1210       C  0.62598632  0.77112047  0.71940317     0.36000
H1211       H  0.59523801  0.77389605  0.82291824     0.16300
O1212       O  0.53427903  0.75781796  0.79173363    -0.60600
H1213       H  0.59520619  0.75972606  0.66439512     0.16400
O1214       O  0.65554278  0.77676745  0.69498630    -0.60700
H1215       H  0.66754083  0.75485126  0.69405360     0.43400
H1216       H  0.53137733  0.73339938  0.79781450     0.43300
C1217       C  0.63022792  0.53650099  0.59129381    -0.05800
C1218       C  0.63420397  0.50265673  0.60266432    -0.33200
C1219       C  0.66530027  0.99001053  0.61871544     0.36100
C1220       C  0.69006875  0.51666243  0.63503139    -0.06100
C1221       C  0.68741616  0.54959145  0.61913676    -0.33100
C1222       C  0.65774709  0.55968847  0.59828312     0.36000
H1223       H  0.61536932  0.98022608  0.59049689     0.16300
O1224       O  0.66992991  0.95658166  0.62686665    -0.60600
H1225       H  0.70803604  0.56820640  0.62398544     0.16400
O1226       O  0.65592025  0.59235335  0.58453044    -0.60700
H1227       H  0.65471012  0.60658062  0.61099971     0.43400
H1228       H  0.67941329  0.94679965  0.59965345     0.43300
C1229       C  0.53866843  0.62097727  0.60045983    -0.05800
C1230       C  0.50551012  0.63225020  0.58998853    -0.33200
C1231       C  0.49245040  0.66248035  0.60770885     0.36100
C1232       C  0.51241640  0.68194979  0.63668163    -0.06100
C1233       C  0.54489081  0.67037371  0.64815782    -0.33100
C1234       C  0.55818105  0.64053430  0.63032720     0.36000
H1235       H  0.48955995  0.61768328  0.56792933     0.16300
O1236       O  0.96342129  0.67776441  0.58160645    -0.60600
H1237       H  0.56070106  0.68511506  0.67023950     0.16400
O1238       O  0.59045279  0.63100898  0.64247364    -0.60700
H1239       H  0.60703905  0.64558428  0.62599771     0.43400
H1240       H  0.97003447  0.68489743  0.55212501     0.43300
C1241       C  0.80011491  0.61645643  0.78529014    -0.05800
C1242       C  0.77304430  0.59648081  0.80311758    -0.33200
C1243       C  0.76139062  0.56658567  0.78224905     0.36100
C1244       C  0.77727325  0.55575046  0.74305304    -0.06100
C1245       C  0.80259864  0.57735618  0.72425590    -0.33100
C1246       C  0.81447735  0.60667256  0.74503477     0.36000
H1247       H  0.76072762  0.60406160  0.83325002     0.16300
O1248       O  0.73327656  0.54923655  0.79930326    -0.60600
H1249       H  0.81275423  0.57267830  0.69217004     0.16400
O1250       O  0.83855432  0.62683056  0.72397124    -0.60700
H1251       H  0.86000813  0.61346233  0.72192349     0.43400
H1252       H  0.74165218  0.53887659  0.82579030     0.43300
C1253       C  0.89107357  0.70363389  0.79597177    -0.05800
C1254       C  0.89692372  0.73873624  0.79422812    -0.33200
C1255       C  0.92458741  0.75233941  0.76953008     0.36100
C1256       C  0.94661090  0.73078679  0.74520706    -0.06100
C1257       C  0.94299977  0.69582511  0.75073097    -0.33100
C1258       C  0.91569876  0.68218256  0.77593354     0.36000
H1259       H  0.87899131  0.75579872  0.81015689     0.16300
O1260       O  0.92901499  0.78678942  0.76829899    -0.60600
H1261       H  0.95999791  0.67867836  0.73339036     0.16400
O1262       O  0.91312519  0.64776636  0.78061305    -0.60700
H1263       H  0.91063191  0.63810398  0.75125756     0.43400
H1264       H  0.94882596  0.79207917  0.78720879     0.43300
loop_ 
_geom_bond_atom_site_label_1 
_geom_bond_atom_site_label_2 
_geom_bond_distance 
_geom_bond_site_symmetry_2 
_ccdc_geom_bond_type 
C1            N2   1.353       .  A
C1            N6   1.361       .  A
C1          C293   1.483       .  S
N2            C3   1.352       .  A
C3            N4   1.359       .  A
C3          C305   1.483       .  S
N4            C5   1.363       .  A
C5            N6   1.364       .  A
C5           C59   1.473       .  S
C7            N8   1.357       .  A
C7           N12   1.361       .  A
C7          C281   1.496       .  S
N8            C9   1.357       .  A
C9           N10   1.358       .  A
C9          C269   1.479       .  S
N10          C11   1.362       .  A
C11          N12   1.363       .  A
C11          C74   1.472       .  S
C13          N14   1.363       .  A
C13          N18   1.356       .  A
C13         C257   1.486       .  S
N14          C15   1.367       .  A
C15          N16   1.363       .  A
C15          C62   1.479       .  S
N16          C17   1.360       .  A
C17          N18   1.354       .  A
C17         C248   1.484       .  S
C19          N20   1.360       .  A
C19          N24   1.363       .  A
C19         C221   1.493       .  S
N20          C21   1.357       .  A
C21          N22   1.356       .  A
C21          C75   1.470       .  S
N22          C23   1.358       .  A
C23          N24   1.361       .  A
C23         C236   1.484       .  S
C25          C31   1.538       .  S
C25          C29   1.535       .  S
C25         C658   1.540       .  S
C25         C233   1.539       .  S
C26         C657   1.542   1_455  S
C26          H33   1.081       .  S
C26          C27   1.365       .  D
C27          C28   1.540       .  S
C27         C260   1.491       .  S
C28          C30   1.550   1_455  S
C28         C664   1.545   1_455  S
C28          H34   1.109       .  S
C29          H35   1.084       .  S
C29         C662   1.373       .  D
C30         C661   1.370       .  D
C30         C284   1.496   1_655  S
C31          H36   1.084       .  S
C31          C32   1.366       .  D
C32         C660   1.539       .  S
C32         C308   1.484       .  S
C37          C38   1.525       .  S
C37          C43   1.541       .  S
C37         C357   1.535   1_545  S
C37         C296   1.531       .  S
C38          H45   1.086       .  S
C38          C39   1.369       .  D
C39         C356   1.551   1_545  S
C39         C272   1.503       .  S
C40          C44   1.541       .  S
C40          C42   1.546       .  S
C40         C355   1.551       .  S
C40          H46   1.108       .  S
C41         C353   1.539       .  S
C41          H47   1.082       .  S
C41          C42   1.366       .  D
C42         C245   1.478       .  S
C43          H48   1.085       .  S
C43         C360   1.363   1_545  D
C44         C359   1.362       .  D
C44         C224   1.483       .  S
O49         Ni57   1.916       .  S
O49          C59   1.281       .  A
O50         Ni57   1.920       .  S
O50          C60   1.280       .  A
O51         Ni57   1.932       .  S
O51          C61   1.284       .  A
O52         Ni57   1.931       .  S
O52          C62   1.285       .  A
O53         Ni58   1.922       .  S
O53          C62   1.281       .  A
O54         Ni58   1.922       .  S
O54          C61   1.282       .  A
O55         Ni58   1.929       .  S
O55          C60   1.284       .  A
O56         Ni58   1.926       .  S
O56          C59   1.282       .  A
Ni57        Ni58   2.388       .  S
C60          C91   1.477   1_556  S
C61          C81   1.480   1_556  S
O63        Ni703   1.916       .  S
O63          C73   1.281       .  A
O64         Ni71   1.916       .  S
O64         C390   1.281       .  A
O65        Ni703   1.919       .  S
O65          C75   1.282       .  A
O66         Ni71   1.923       .  S
O66         C392   1.281       .  A
O67        Ni704   1.917   1_455  S
O67          C76   1.282       .  A
O68        Ni388   1.918       .  S
O68          C75   1.281       .  A
O69        Ni704   1.921   1_455  S
O69          C74   1.282       .  A
O70        Ni388   1.928       .  S
O70          C73   1.283       .  A
Ni71        O695   1.911   1_455  S
Ni71        O697   1.919   1_455  S
Ni71      Ni1020   2.390   1_455  S
Ni72        O699   1.910       .  S
Ni72        O384   1.913   1_545  S
Ni72        O701   1.928       .  S
Ni72        O386   1.926   1_545  S
Ni72      Ni1019   2.390   1_545  S
C73          C99   1.474       .  S
C74         O380   1.281   1_545  A
C76          C85   1.474       .  S
C76         O382   1.282   1_545  A
C77          N78   1.353       .  A
C77          N82   1.361       .  A
C77         C200   1.484       .  S
N78          C79   1.351       .  A
C79          N80   1.361       .  A
C79         C209   1.474       .  S
N80          C81   1.367       .  A
C81          N82   1.367       .  A
C83          N84   1.355       .  A
C83          N88   1.353       .  A
C83         C176   1.473       .  S
N84          C85   1.359       .  A
C85          N86   1.364       .  A
N86          C87   1.365       .  A
C87          N88   1.358       .  A
C87         C188   1.495       .  S
C89          N90   1.364       .  A
C89          N94   1.361       .  A
C89         C149   1.500       .  S
N90          C91   1.363       .  A
C91          N92   1.358       .  A
N92          C93   1.358       .  A
C93          N94   1.359       .  A
C93         C161   1.478       .  S
C95          N96   1.349       .  A
C95         N100   1.356       .  A
C95         C137   1.466       .  S
N96          C97   1.354       .  A
C97          N98   1.365       .  A
C97         C125   1.491       .  S
N98          C99   1.366       .  A
C99         N100   1.362       .  A
C101        C102   1.538       .  S
C101        C105   1.535       .  S
C101        C739   1.540   1_455  S
C101        C173   1.536       .  S
C102        H109   1.085       .  S
C102        C103   1.363       .  D
C103        C736   1.537   1_455  S
C103        C164   1.476       .  S
C104        C108   1.534       .  S
C104        C106   1.543       .  S
C104        C735   1.536       .  S
C104        H110   1.107       .  S
C105        H111   1.085       .  S
C105        C738   1.372   1_455  D
C106        C737   1.371       .  D
C106        C140   1.494       .  S
C107        C733   1.545       .  S
C107        H112   1.082       .  S
C107        C108   1.365       .  D
C108        C212   1.483       .  S
C113        C119   1.539       .  S
C113        C117   1.543       .  S
C113        C430   1.529       .  S
C113        C128   1.535       .  S
C114        C429   1.528   1_545  S
C114        H121   1.086       .  S
C114        C115   1.365       .  D
C115        C116   1.542       .  S
C115        C197   1.485       .  S
C116        C118   1.543       .  S
C116        C436   1.544   1_545  S
C116        H122   1.110       .  S
C117        H123   1.086       .  S
C117        C434   1.370       .  D
C118        C433   1.368   1_545  D
C118        C185   1.486       .  S
C119        H124   1.083       .  S
C119        C120   1.362       .  D
C120        C432   1.545       .  S
C120        C152   1.488       .  S
C125        C126   1.404       .  A
C125        C130   1.414       .  A
C126        C127   1.405       .  A
C126        H131   1.083       .  S
C127        C128   1.417       .  A
C127        O448   1.371       .  S
C128        C129   1.408       .  A
C129        C130   1.394       .  A
C129        H133   1.078       .  S
C130        O134   1.372       .  S
O132        C443   1.371   1_545  S
O132        H136   0.992       .  S
O134        H135   0.992       .  S
C137        C138   1.398       .  A
C137        C142   1.403       .  A
C138        C139   1.399       .  A
C138        H143   1.084       .  S
C139        C140   1.415       .  A
C139        O776   1.371       .  S
C140        C141   1.410       .  A
C141        C142   1.401       .  A
C141        H145   1.083       .  S
C142        O146   1.372       .  S
O144        C771   1.372   1_455  S
O144        H148   0.992       .  S
O146        H147   0.992       .  S
C149        C150   1.412       .  A
C149        C154   1.415       .  A
C150        C151   1.405       .  A
C150        H155   1.083       .  S
C151        C152   1.405       .  A
C151        O156   1.371       .  S
C152        C153   1.404       .  A
C153        C154   1.402       .  A
C153        H157   1.084       .  S
C154        O158   1.371       .  S
O156        H160   0.992       .  S
O158        H159   0.992   1_554  S
C161        C162   1.403       .  A
C161        C166   1.411       .  A
C162        C163   1.399       .  A
C162        H167   1.084       .  S
C163        C164   1.407       .  A
C163        O168   1.373       .  S
C164        C165   1.400       .  A
C165        C166   1.404       .  A
C165        H169   1.083       .  S
C166        O170   1.371       .  S
O168        H172   0.991       .  S
O170        H171   0.992       .  S
C173        C174   1.413       .  A
C173        C178   1.417       .  A
C174        C175   1.398       .  A
C174        H811   1.077   1_455  S
C175        C176   1.403       .  A
C175        O812   1.372   1_455  S
C176        C177   1.400       .  A
C177        C178   1.403       .  A
C177        H181   1.084       .  S
C178        O182   1.374       .  S
H179        C806   1.078       .  S
O180        C807   1.372       .  S
O180        H184   0.992       .  S
O182        H183   0.992       .  S
C185        C186   1.405   1_545  A
C185        C190   1.405       .  A
C186        C187   1.405   1_565  A
C186        H507   1.083       .  S
C187        C188   1.414       .  A
C187        O508   1.371   1_545  S
C188        C189   1.410       .  A
C189        C190   1.397       .  A
C189        H193   1.083       .  S
C190        O194   1.371       .  S
H191        C502   1.083       .  S
O192        C503   1.371       .  S
O192        H196   0.992       .  S
O194        H195   0.992       .  S
C197        C198   1.406       .  A
C197        C202   1.408       .  A
C198        C199   1.411       .  A
C198        H203   1.083       .  S
C199        C200   1.412       .  A
C199        O204   1.371       .  S
C200        C201   1.403       .  A
C201        C202   1.394       .  A
C201        H205   1.084       .  S
C202        O206   1.373       .  S
O204        H208   0.992       .  S
O206        H207   0.992       .  S
C209        C210   1.404       .  A
C209        C214   1.408       .  A
C210        C211   1.406       .  A
C210        H215   1.083       .  S
C211        C212   1.409       .  A
C211        O216   1.371       .  S
C212        C213   1.402       .  A
C213        C214   1.398       .  A
C213        H217   1.084       .  S
C214        O218   1.372       .  S
O216        H220   0.991       .  S
O218        H219   0.992       .  S
C221        C222   1.409       .  A
C221        C226   1.416       .  A
C222        C223   1.404       .  A
C222        H227   1.083       .  S
C223        C224   1.405       .  A
C223        O228   1.371       .  S
C224        C225   1.402       .  A
C225        C226   1.399       .  A
C225        H229   1.084       .  S
C226        O230   1.371       .  S
O228        H232   0.992       .  S
O230        H231   0.992       .  S
C233        C234   1.410       .  A
C233        C238   1.417       .  A
C234        C235   1.397       .  A
C234        H871   1.079       .  S
C235        C236   1.408       .  A
C235        O240   1.372       .  S
C236        C237   1.403       .  A
C237        C238   1.407       .  A
C237        H241   1.084       .  S
C238        O242   1.374       .  S
H239        C866   1.076   1_455  S
O240        H876   0.992       .  S
O242        H243   0.992       .  S
H244        O872   0.992       .  S
C245        C246   1.404       .  A
C245        C250   1.402       .  A
C246        C247   1.404       .  A
C246        H251   1.083       .  S
C247        C248   1.410       .  A
C247        O252   1.371       .  S
C248        C249   1.407       .  A
C249        C250   1.398       .  A
C249        H253   1.084       .  S
C250        O254   1.370       .  S
O252        H256   0.992       .  S
O254        H255   0.992       .  S
C257        C258   1.407       .  A
C257        C262   1.410       .  A
C258        C259   1.411       .  A
C258        H263   1.083       .  S
C259        C260   1.409       .  A
C259        O264   1.371       .  S
C260        C261   1.404       .  A
C261        C262   1.395       .  A
C261        H265   1.084       .  S
C262        O266   1.372       .  S
O264        H268   0.992       .  S
O266        H267   0.992       .  S
C269        C270   1.404       .  A
C269        C274   1.404       .  A
C270        C587   1.409   1_545  A
C270        H591   1.083   1_545  S
C271        C586   1.408       .  A
C271        C588   1.413       .  A
C271        O276   1.368       .  S
C272        C273   1.410       .  A
C272        C587   1.414   1_545  A
C273        C274   1.395       .  A
C273        H277   1.083       .  S
C274        O278   1.373       .  S
H275        C586   1.083       .  S
O276        H280   0.992       .  S
O278        H279   0.992       .  S
C281        C282   1.408       .  A
C281        C286   1.415       .  A
C282        C283   1.407   1_455  A
C282        H287   1.083   1_455  S
C283        C284   1.414   1_655  A
C283        O920   1.372       .  S
C284        C285   1.402       .  A
C285        C286   1.398       .  A
C285        H289   1.082       .  S
C286        O290   1.372       .  S
O288        C915   1.372       .  S
O288        H292   0.992       .  S
O290        H291   0.992       .  S
C293        C294   1.403       .  A
C293        C298   1.409       .  A
C294        C295   1.408       .  A
C294        H299   1.083       .  S
C295        C296   1.418       .  A
C295        O300   1.371       .  S
C296        C297   1.408       .  A
C297        C298   1.393       .  A
C297        H301   1.081       .  S
C298        O302   1.374       .  S
O300        H304   0.992       .  S
O302        H303   0.992       .  S
C305        C306   1.404       .  A
C305        C310   1.414       .  A
C306        C307   1.400       .  A
C306        H311   1.083       .  S
C307        C308   1.411       .  A
C307        O312   1.371       .  S
C308        C309   1.400       .  A
C309        C310   1.400       .  A
C309        H313   1.083       .  S
C310        O314   1.374       .  S
O312        H316   0.992       .  S
O314        H315   0.991       .  S
C317        N318   1.353       .  A
C317        N322   1.357       .  A
C317        C609   1.474       .  S
N318        C319   1.353       .  A
C319        N320   1.359       .  A
C319        C621   1.482       .  S
N320        C321   1.362       .  A
C321        N322   1.360       .  A
C321        C375   1.466       .  S
C323        N324   1.358       .  A
C323        N328   1.363       .  A
C323        C597   1.498       .  S
N324        C325   1.357       .  A
C325        N326   1.357       .  A
C325        C585   1.481       .  S
N326        C327   1.362       .  A
C327        N328   1.364       .  A
C327        C390   1.474       .  S
C329        N330   1.361       .  A
C329        N334   1.355       .  A
C329        C573   1.482       .  S
N330        C331   1.365       .  A
C331        N332   1.363       .  A
C331        C378   1.474       .  S
N332        C333   1.360       .  A
C333        N334   1.354       .  A
C333        C564   1.483       .  S
C335        N336   1.360       .  A
C335        N340   1.362       .  A
C335        C537   1.491       .  S
N336        C337   1.356       .  A
C337        N338   1.354       .  A
C337        C391   1.466       .  S
N338        C339   1.356       .  A
C339        N340   1.360       .  A
C339        C552   1.472       .  S
C341        C974   1.545       .  S
C341        C347   1.533       .  S
C341        C345   1.540       .  S
C341        C549   1.534       .  S
C342        C973   1.541   1_455  S
C342        H349   1.082       .  S
C342        C343   1.364       .  D
C343        C344   1.539       .  S
C343        C576   1.489       .  S
C344        C980   1.546   1_455  S
C344        C346   1.549   1_455  S
C344        H350   1.108       .  S
C345        H351   1.086       .  S
C345        C978   1.369       .  D
C346        C977   1.372       .  D
C346        C600   1.498   1_655  S
C347        H352   1.086       .  S
C347        C348   1.364       .  D
C348        C976   1.538       .  S
C348        C624   1.480       .  S
C353        C354   1.526       .  S
C353        C359   1.538       .  S
C353        C612   1.530       .  S
C354        H361   1.086       .  S
C354        C355   1.368       .  D
C355        C588   1.502       .  S
C356        C360   1.539       .  S
C356        C358   1.548       .  S
C356        H362   1.107       .  S
C357        H363   1.085       .  S
C357        C358   1.366       .  D
C358        C561   1.478       .  S
C359        H364   1.087       .  S
C360        C540   1.483       .  S
O365       Ni373   1.912       .  S
O365        C375   1.280       .  A
O366       Ni373   1.915       .  S
O366        C376   1.280       .  A
O367       Ni373   1.926       .  S
O367        C377   1.284       .  A
O368       Ni373   1.926       .  S
O368        C378   1.283       .  A
O369       Ni374   1.919       .  S
O369        C378   1.281       .  A
O370       Ni374   1.919       .  S
O370        C377   1.280       .  A
O371       Ni374   1.922       .  S
O371        C376   1.283       .  A
O372       Ni374   1.919       .  S
O372        C375   1.282       .  A
Ni373      Ni374   2.390       .  S
C376        C407   1.470   1_556  S
C377        C397   1.474   1_556  S
O379      Ni1019   1.916       .  S
O379        C389   1.282       .  A
O380       Ni387   1.919       .  S
O381      Ni1019   1.918       .  S
O381        C391   1.282       .  A
O382       Ni387   1.928       .  S
O383      Ni1020   1.912   1_455  S
O383        C392   1.281       .  A
O384        C391   1.280       .  A
O385      Ni1020   1.928       .  S
O385        C390   1.283   1_655  A
O386        C389   1.282       .  A
Ni387      O1011   1.917       .  S
Ni387      O1013   1.926   1_455  S
Ni387      Ni704   2.389   1_465  S
Ni388      O1015   1.918       .  S
Ni388      O1017   1.930       .  S
Ni388      Ni703   2.389       .  S
C389        C415   1.473       .  S
C392        C401   1.469       .  S
C393        N394   1.356       .  A
C393        N398   1.362       .  A
C393        C516   1.487       .  S
N394        C395   1.353       .  A
C395        N396   1.357       .  A
C395        C525   1.473       .  S
N396        C397   1.363       .  A
C397        N398   1.367       .  A
C399        N400   1.354       .  A
C399        N404   1.354       .  A
C399        C492   1.472       .  S
N400        C401   1.358       .  A
C401        N402   1.363       .  A
N402        C403   1.363       .  A
C403        N404   1.360       .  A
C403        C504   1.494       .  S
C405        N406   1.362       .  A
C405        N410   1.360       .  A
C405        C465   1.496       .  S
N406        C407   1.360       .  A
C407        N408   1.357       .  A
N408        C409   1.357       .  A
C409        N410   1.359       .  A
C409        C477   1.473       .  S
C411        N412   1.350       .  A
C411        N416   1.354       .  A
C411        C453   1.463       .  S
N412        C413   1.355       .  A
C413        N414   1.365       .  A
C413        C441   1.492       .  S
N414        C415   1.366       .  A
C415        N416   1.360       .  A
C417        C418   1.536       .  S
C417       C1055   1.540   1_455  S
C417        C421   1.537   1_455  S
C417        C489   1.536       .  S
C418        H425   1.086       .  S
C418        C419   1.361       .  D
C419       C1052   1.536   1_455  S
C419        C480   1.473       .  S
C420       C1051   1.533       .  S
C420        C424   1.537       .  S
C420        C422   1.542       .  S
C420        H426   1.108       .  S
C421        H427   1.086       .  S
C421       C1054   1.373       .  D
C422       C1053   1.369       .  D
C422        C456   1.488       .  S
C423       C1049   1.540       .  S
C423        H428   1.080       .  S
C423        C424   1.365       .  D
C424        C528   1.487       .  S
C429        C435   1.539       .  S
C429        C433   1.543       .  S
C429        C444   1.534       .  S
C430        H437   1.086       .  S
C430        C431   1.365       .  D
C431        C432   1.544       .  S
C431        C513   1.489       .  S
C432        C434   1.546       .  S
C432        H438   1.110       .  S
C433        H439   1.086       .  S
C434        C501   1.491       .  S
C435        H440   1.084       .  S
C435        C436   1.363       .  D
C436        C468   1.483       .  S
C441        C442   1.405       .  A
C441        C446   1.415       .  A
C442        C443   1.405       .  A
C442        H447   1.083       .  S
C443        C444   1.418       .  A
C444        C445   1.407       .  A
C445        C446   1.395       .  A
C445        H449   1.079       .  S
C446        O450   1.372       .  S
O448        H452   0.992       .  S
O450        H451   0.992       .  S
C453        C454   1.398       .  A
C453        C458   1.402       .  A
C454        C455   1.400       .  A
C454        H459   1.084       .  S
C455        C456   1.413       .  A
C455       O1092   1.373       .  S
C456        C457   1.408       .  A
C457        C458   1.399       .  A
C457        H461   1.083       .  S
C458        O462   1.372       .  S
O460       C1087   1.372   1_455  S
O460        H464   0.991       .  S
O462        H463   0.992       .  S
C465        C466   1.411       .  A
C465        C470   1.415       .  A
C466        C467   1.403       .  A
C466        H471   1.083       .  S
C467        C468   1.405       .  A
C467        O472   1.371       .  S
C468        C469   1.402       .  A
C469        C470   1.401       .  A
C469        H473   1.084       .  S
C470        O474   1.371       .  S
O472        H476   0.992       .  S
O474        H475   0.992   1_554  S
C477        C478   1.402       .  A
C477        C482   1.410       .  A
C478        C479   1.396       .  A
C478        H483   1.084       .  S
C479        C480   1.407       .  A
C479        O484   1.373       .  S
C480        C481   1.400       .  A
C481        C482   1.403       .  A
C481        H485   1.084       .  S
C482        O486   1.371       .  S
O484        H488   0.991       .  S
O486        H487   0.992       .  S
C489        C490   1.413   1_455  A
C489        C494   1.418       .  A
C490        C491   1.398   1_655  A
C490       H1127   1.076       .  S
C491        C492   1.403       .  A
C491       O1128   1.372   1_455  S
C492        C493   1.399       .  A
C493        C494   1.404       .  A
C493        H497   1.084       .  S
C494        O498   1.374       .  S
H495       C1122   1.076       .  S
O496       C1123   1.372       .  S
O496        H500   0.992       .  S
O498        H499   0.992       .  S
C501        C502   1.407       .  A
C501        C506   1.407       .  A
C502        C503   1.407       .  A
C503        C504   1.415       .  A
C504        C505   1.407       .  A
C505        C506   1.395       .  A
C505        H509   1.083       .  S
C506        O510   1.370       .  S
O508        H512   0.992       .  S
O510        H511   0.992       .  S
C513        C514   1.405       .  A
C513        C518   1.410       .  A
C514        C515   1.411       .  A
C514        H519   1.083       .  S
C515        C516   1.412       .  A
C515        O520   1.371       .  S
C516        C517   1.404       .  A
C517        C518   1.397       .  A
C517        H521   1.084       .  S
C518        O522   1.374       .  S
O520        H524   0.992       .  S
O522        H523   0.992       .  S
C525        C526   1.404       .  A
C525        C530   1.406       .  A
C526        C527   1.407       .  A
C526        H531   1.083       .  S
C527        C528   1.411       .  A
C527        O532   1.371       .  S
C528        C529   1.404       .  A
C529        C530   1.393       .  A
C529        H533   1.084       .  S
C530        O534   1.372       .  S
O532        H536   0.992       .  S
O534        H535   0.992       .  S
C537        C538   1.409       .  A
C537        C542   1.415       .  A
C538        C539   1.404       .  A
C538        H543   1.083       .  S
C539        C540   1.406       .  A
C539        O544   1.371       .  S
C540        C541   1.401       .  A
C541        C542   1.397       .  A
C541        H545   1.084   1_565  S
C542        O546   1.371       .  S
O544        H548   0.992       .  S
O546        H547   0.992       .  S
C549        C550   1.411       .  A
C549        C554   1.418       .  A
C550        C551   1.394       .  A
C550       H1187   1.074       .  S
C551        C552   1.404       .  A
C551        O556   1.373       .  S
C552        C553   1.400       .  A
C553        C554   1.404       .  A
C553        H557   1.084       .  S
C554        O558   1.373       .  S
H555       C1182   1.077   1_455  S
O556       H1192   0.992       .  S
O558        H559   0.992       .  S
H560       O1188   0.992       .  S
C561        C562   1.404       .  A
C561        C566   1.402       .  A
C562        C563   1.404       .  A
C562        H567   1.084       .  S
C563        C564   1.410       .  A
C563        O568   1.371       .  S
C564        C565   1.407       .  A
C565        C566   1.397       .  A
C565        H569   1.084       .  S
C566        O570   1.370       .  S
O568        H572   0.992       .  S
O570        H571   0.992       .  S
C573        C574   1.406       .  A
C573        C578   1.409       .  A
C574        C575   1.409       .  A
C574        H579   1.083       .  S
C575        C576   1.410       .  A
C575        O580   1.371       .  S
C576        C577   1.403       .  A
C577        C578   1.394       .  A
C577        H581   1.084       .  S
C578        O582   1.372       .  S
O580        H584   0.992       .  S
O582        H583   0.992       .  S
C585        C586   1.404       .  A
C585        C590   1.405       .  A
C587        O592   1.368       .  S
C588        C589   1.409       .  A
C589        C590   1.397       .  A
C589        H593   1.083       .  S
C590        O594   1.373       .  S
O592        H596   0.992       .  S
O594        H595   0.992       .  S
C597        C598   1.409       .  A
C597        C602   1.416       .  A
C598        C599   1.409   1_455  A
C598        H603   1.083   1_455  S
C599        C600   1.413   1_655  A
C599       O1236   1.372       .  S
C600        C601   1.402       .  A
C601        C602   1.399       .  A
C601        H605   1.083       .  S
C602        O606   1.372       .  S
O604       C1231   1.372       .  S
O604        H608   0.992       .  S
O606        H607   0.992       .  S
C609        C610   1.401       .  A
C609        C614   1.405       .  A
C610        C611   1.406       .  A
C610        H615   1.084       .  S
C611        C612   1.418       .  A
C611        O616   1.370       .  S
C612        C613   1.409       .  A
C613        C614   1.392       .  A
C613        H617   1.083       .  S
C614        O618   1.373       .  S
O616        H620   0.992       .  S
O618        H619   0.992       .  S
C621        C622   1.404       .  A
C621        C626   1.414       .  A
C622        C623   1.399       .  A
C622        H627   1.083       .  S
C623        C624   1.411       .  A
C623        O628   1.372       .  S
C624        C625   1.399       .  A
C625        C626   1.397       .  A
C625        H629   1.083       .  S
C626        O630   1.373       .  S
O628        H632   0.992       .  S
O630        H631   0.992       .  S
C633        N634   1.351       .  A
C633        N638   1.359       .  A
C633        C925   1.478       .  S
N634        C635   1.351       .  A
C635        N636   1.364       .  A
C635        C937   1.490       .  S
N636        C637   1.367       .  A
C637        N638   1.364       .  A
C637        C691   1.478       .  S
C639        N640   1.358       .  A
C639        N644   1.363       .  A
C639        C913   1.500       .  S
N640        C641   1.358       .  A
C641        N642   1.360       .  A
C641        C901   1.486       .  S
N642        C643   1.364       .  A
C643        N644   1.365       .  A
C643        C706   1.478       .  S
C645        N646   1.358       .  A
C645        N650   1.356       .  A
C645        C889   1.473       .  S
N646        C647   1.362       .  A
C647        N648   1.363       .  A
C647        C694   1.474       .  S
N648        C649   1.361       .  A
C649        N650   1.356       .  A
C649        C880   1.489       .  S
C651        N652   1.362       .  A
C651        N656   1.361       .  A
C651        C853   1.491       .  S
N652        C653   1.358       .  A
C653        N654   1.352       .  A
C653        C707   1.467       .  S
N654        C655   1.355       .  A
C655        N656   1.359       .  A
C655        C868   1.473       .  S
C657        C663   1.531       .  S
C657        C661   1.535       .  S
C657        C865   1.531       .  S
C658        H665   1.083       .  S
C658        C659   1.363       .  D
C659        C660   1.536       .  S
C659        C892   1.484       .  S
C660        C662   1.552       .  S
C660        H666   1.109       .  S
C661        H667   1.084       .  S
C662        C916   1.501       .  S
C663        H668   1.085       .  S
C663        C664   1.362       .  D
C664        C940   1.486       .  S
C669        C670   1.526       .  S
C669        C675   1.539       .  S
C669        C989   1.537   1_545  S
C669        C928   1.534       .  S
C670        H677   1.086       .  S
C670        C671   1.368       .  D
C671        C988   1.554   1_545  S
C671        C904   1.508       .  S
C672        C987   1.550       .  S
C672        C676   1.541       .  S
C672        C674   1.551       .  S
C672        H678   1.107       .  S
C673        C985   1.535       .  S
C673        H679   1.085       .  S
C673        C674   1.367       .  D
C674        C877   1.481       .  S
C675        H680   1.087       .  S
C675        C992   1.364   1_545  D
C676        C991   1.363       .  D
C676        C856   1.487       .  S
O681       Ni689   1.922       .  S
O681        C691   1.281       .  A
O682       Ni689   1.921       .  S
O682        C692   1.282       .  A
O683       Ni689   1.925       .  S
O683        C693   1.283       .  A
O684       Ni689   1.923       .  S
O684        C694   1.282       .  A
O685       Ni690   1.921       .  S
O685        C694   1.282       .  A
O686       Ni690   1.923       .  S
O686        C693   1.282       .  A
O687       Ni690   1.928       .  S
O687        C692   1.283       .  A
O688       Ni690   1.927       .  S
O688        C691   1.283       .  A
Ni689      Ni690   2.388       .  S
C692        C723   1.477   1_556  S
C693        C713   1.476   1_556  S
O695        C705   1.280       .  A
O696       Ni703   1.921       .  S
O696       C1022   1.282       .  A
O697        C707   1.283       .  A
O698       Ni703   1.923       .  S
O698       C1024   1.282       .  A
O699        C708   1.281       .  A
O700      Ni1020   1.913       .  S
O700        C707   1.279       .  A
O701        C706   1.283       .  A
O702      Ni1020   1.925       .  S
O702        C705   1.282       .  A
Ni704      O1016   1.919   1_545  S
Ni704      O1018   1.920   1_545  S
C705        C731   1.469       .  S
C706       O1012   1.282   1_545  A
C708        C717   1.466       .  S
C708       O1014   1.281   1_545  A
C709        N710   1.355       .  A
C709        N714   1.361       .  A
C709        C832   1.487       .  S
N710        C711   1.353       .  A
C711        N712   1.359       .  A
C711        C841   1.477       .  S
N712        C713   1.366       .  A
C713        N714   1.366       .  A
C715        N716   1.353       .  A
C715        N720   1.353       .  A
C715        C808   1.471       .  S
N716        C717   1.357       .  A
C717        N718   1.363       .  A
N718        C719   1.363       .  A
C719        N720   1.359       .  A
C719        C820   1.491       .  S
C721        N722   1.360       .  A
C721        N726   1.358       .  A
C721        C781   1.494       .  S
N722        C723   1.360       .  A
C723        N724   1.361       .  A
N724        C725   1.361       .  A
C725        N726   1.358       .  A
C725        C793   1.475       .  S
C727        N728   1.349       .  A
C727        N732   1.355       .  A
C727        C769   1.466       .  S
N728        C729   1.355       .  A
C729        N730   1.363       .  A
C729        C757   1.489       .  S
N730        C731   1.364       .  A
C731        N732   1.361       .  A
C733        C734   1.536       .  S
C733        C737   1.538       .  S
C733        C805   1.534       .  S
C734        H741   1.086       .  S
C734        C735   1.361       .  D
C735        C796   1.473       .  S
C736        C740   1.541       .  S
C736        C738   1.546       .  S
C736        H742   1.105       .  S
C737        H743   1.086       .  S
C738        C772   1.498       .  S
C739        H744   1.081       .  S
C739        C740   1.364       .  D
C740        C844   1.494       .  S
C745       C1062   1.528       .  S
C745        C751   1.537       .  S
C745        C749   1.543       .  S
C745        C760   1.532       .  S
C746       C1061   1.534   1_545  S
C746        H753   1.085       .  S
C746        C747   1.367       .  D
C747        C748   1.545       .  S
C747        C829   1.490       .  S
C748       C1068   1.548   1_545  S
C748        C750   1.543       .  S
C748        H754   1.110       .  S
C749        H755   1.085       .  S
C749       C1066   1.371       .  D
C750       C1065   1.365   1_545  D
C750        C817   1.484       .  S
C751        H756   1.084       .  S
C751        C752   1.360       .  D
C752       C1064   1.542       .  S
C752        C784   1.482       .  S
C757        C758   1.406       .  A
C757        C762   1.413       .  A
C758        C759   1.405       .  A
C758        H763   1.083       .  S
C759        C760   1.417       .  A
C759       O1080   1.371       .  S
C760        C761   1.407       .  A
C761        C762   1.391       .  A
C761        H765   1.079       .  S
C762        O766   1.372       .  S
O764       C1075   1.373   1_545  S
O764        H768   0.992       .  S
O766        H767   0.992       .  S
C769        C770   1.398       .  A
C769        C774   1.401       .  A
C770        C771   1.401       .  A
C770        H775   1.084       .  S
C771        C772   1.416       .  A
C772        C773   1.411       .  A
C773        C774   1.399       .  A
C773        H777   1.082       .  S
C774        O778   1.372       .  S
O776        H780   0.991       .  S
O778        H779   0.992       .  S
C781        C782   1.411       .  A
C781        C786   1.414       .  A
C782        C783   1.403       .  A
C782        H787   1.083       .  S
C783        C784   1.405       .  A
C783        O788   1.371       .  S
C784        C785   1.402       .  A
C785        C786   1.399       .  A
C785        H789   1.084       .  S
C786        O790   1.371       .  S
O788        H792   0.992       .  S
O790        H791   0.992       .  S
C793        C794   1.403       .  A
C793        C798   1.409       .  A
C794        C795   1.396       .  A
C794        H799   1.084       .  S
C795        C796   1.406       .  A
C795        O800   1.373       .  S
C796        C797   1.401       .  A
C797        C798   1.405       .  A
C797        H801   1.084       .  S
C798        O802   1.371       .  S
O800        H804   0.991       .  S
O802        H803   0.992       .  S
C805        C806   1.411       .  A
C805        C810   1.419       .  A
C806        C807   1.398       .  A
C807        C808   1.404       .  A
C808        C809   1.399       .  A
C809        C810   1.402       .  A
C809        H813   1.084       .  S
C810        O814   1.374       .  S
O812        H816   0.992       .  S
O814        H815   0.992       .  S
C817        C818   1.406   1_545  A
C817        C822   1.405       .  A
C818        C819   1.405   1_565  A
C818       H1139   1.083       .  S
C819        C820   1.414       .  A
C819       O1140   1.371   1_545  S
C820        C821   1.408       .  A
C821        C822   1.393       .  A
C821        H825   1.083       .  S
C822        O826   1.371       .  S
H823       C1134   1.083       .  S
O824       C1135   1.371       .  S
O824        H828   0.992       .  S
O826        H827   0.992       .  S
C829        C830   1.405       .  A
C829        C834   1.411       .  A
C830        C831   1.410       .  A
C830        H835   1.083       .  S
C831        C832   1.412       .  A
C831        O836   1.370       .  S
C832        C833   1.403       .  A
C833        C834   1.395       .  A
C833        H837   1.084       .  S
C834        O838   1.374       .  S
O836        H840   0.992       .  S
O838        H839   0.992       .  S
C841        C842   1.403       .  A
C841        C846   1.407       .  A
C842        C843   1.409       .  A
C842        H847   1.083       .  S
C843        C844   1.412       .  A
C843        O848   1.371       .  S
C844        C845   1.406       .  A
C845        C846   1.396       .  A
C845        H849   1.083       .  S
C846        O850   1.372       .  S
O848        H852   0.992       .  S
O850        H851   0.992       .  S
C853        C854   1.410       .  A
C853        C858   1.413       .  A
C854        C855   1.405       .  A
C854        H859   1.083       .  S
C855        C856   1.406       .  A
C855        O860   1.371       .  S
C856        C857   1.404       .  A
C857        C858   1.397       .  A
C857        H861   1.084       .  S
C858        O862   1.371       .  S
O860        H864   0.992       .  S
O862        H863   0.992       .  S
C865        C866   1.409       .  A
C865        C870   1.418       .  A
C866        C867   1.393       .  A
C867        C868   1.406       .  A
C867        O872   1.372   1_655  S
C868        C869   1.400       .  A
C869        C870   1.403       .  A
C869        H873   1.084       .  S
C870        O874   1.374       .  S
O874        H875   0.992       .  S
C877        C878   1.404       .  A
C877        C882   1.403       .  A
C878        C879   1.405       .  A
C878        H883   1.084       .  S
C879        C880   1.413       .  A
C879        O884   1.371       .  S
C880        C881   1.408       .  A
C881        C882   1.399       .  A
C881        H885   1.083       .  S
C882        O886   1.370       .  S
O884        H888   0.992       .  S
O886        H887   0.992       .  S
C889        C890   1.400       .  A
C889        C894   1.409       .  A
C890        C891   1.394       .  A
C890        H895   1.084       .  S
C891        C892   1.411       .  A
C891        O896   1.372       .  S
C892        C893   1.404       .  A
C893        C894   1.406       .  A
C893        H897   1.081       .  S
C894        O898   1.371       .  S
O896        H900   0.992       .  S
O898        H899   0.992       .  S
C901        C902   1.406   1_545  A
C901        C906   1.405       .  A
C902       C1219   1.412       .  A
C902       H1223   1.083       .  S
C903       C1218   1.409       .  A
C903       C1220   1.414       .  A
C903        O908   1.368       .  S
C904       C1219   1.415   1_545  A
C904        C905   1.410       .  A
C905        C906   1.397       .  A
C905        H909   1.083       .  S
C906        O910   1.373       .  S
H907       C1218   1.083       .  S
O908        H912   0.992       .  S
O910        H911   0.991       .  S
C913        C914   1.408       .  A
C913        C918   1.415       .  A
C914        C915   1.409       .  A
C914        H919   1.083       .  S
C915        C916   1.415       .  A
C916        C917   1.402       .  A
C917        C918   1.401       .  A
C917        H921   1.079       .  S
C918        O922   1.372       .  S
O920        H924   0.992       .  S
O922        H923   0.992       .  S
C925        C926   1.402       .  A
C925        C930   1.406       .  A
C926        C927   1.408       .  A
C926        H931   1.084       .  S
C927        C928   1.420       .  A
C927        O932   1.370       .  S
C928        C929   1.409       .  A
C929        C930   1.392       .  A
C929        H933   1.083       .  S
C930        O934   1.373       .  S
O932        H936   0.992       .  S
O934        H935   0.992       .  S
C937        C938   1.405       .  A
C937        C942   1.418       .  A
C938        C939   1.403       .  A
C938        H943   1.083       .  S
C939        C940   1.413       .  A
C939        O944   1.372       .  S
C940        C941   1.397       .  A
C941        C942   1.399       .  A
C941        H945   1.084       .  S
C942        O946   1.373       .  S
O944        H948   0.992       .  S
O946        H947   0.992       .  S
C949        N950   1.354       .  A
C949        N954   1.363       .  A
C949       C1241   1.489       .  S
N950        C951   1.352       .  A
C951        N952   1.361       .  A
C951       C1253   1.491       .  S
N952        C953   1.367       .  A
C953        N954   1.365       .  A
C953       C1007   1.479       .  S
C955        N956   1.357       .  A
C955        N960   1.364       .  A
C955       C1229   1.499       .  S
N956        C957   1.356       .  A
C957        N958   1.359       .  A
C957       C1217   1.482       .  S
N958        C959   1.364       .  A
C959        N960   1.365       .  A
C959       C1022   1.479       .  S
C961        N962   1.356       .  A
C961        N966   1.354       .  A
C961       C1205   1.471       .  S
N962        C963   1.362       .  A
C963        N964   1.363       .  A
C963       C1010   1.470       .  S
N964        C965   1.362       .  A
C965        N966   1.356       .  A
C965       C1196   1.486       .  S
C967        N968   1.364       .  A
C967        N972   1.361       .  A
C967       C1169   1.496       .  S
N968        C969   1.362       .  A
C969        N970   1.356       .  A
C969       C1023   1.474       .  S
N970        C971   1.357       .  A
C971        N972   1.359       .  A
C971       C1184   1.481       .  S
C973        C979   1.536       .  S
C973        C977   1.538       .  S
C973       C1181   1.539       .  S
C974        H981   1.080       .  S
C974        C975   1.361       .  D
C975        C976   1.529       .  S
C975       C1208   1.473       .  S
C976        C978   1.543       .  S
C976        H982   1.111       .  S
C977        H983   1.085       .  S
C978       C1232   1.486       .  S
C979        H984   1.084       .  S
C979        C980   1.366       .  D
C980       C1256   1.493       .  S
C985        C986   1.528       .  S
C985        C991   1.540       .  S
C985       C1244   1.535       .  S
C986        H993   1.086       .  S
C986        C987   1.370       .  D
C987       C1220   1.503       .  S
C988        C992   1.545       .  S
C988        C990   1.551       .  S
C988        H994   1.107       .  S
C989        H995   1.082       .  S
C989        C990   1.366       .  D
C990       C1193   1.481       .  S
C991        H996   1.085       .  S
C992       C1172   1.490       .  S
O997      Ni1005   1.916       .  S
O997       C1007   1.280       .  A
O998      Ni1005   1.917       .  S
O998       C1008   1.279       .  A
O999      Ni1005   1.927       .  S
O999       C1009   1.284       .  A
O1000     Ni1005   1.926       .  S
O1000      C1010   1.283       .  A
O1001     Ni1006   1.911       .  S
O1001      C1010   1.280       .  A
O1002     Ni1006   1.916       .  S
O1002      C1009   1.279       .  A
O1003     Ni1006   1.935       .  S
O1003      C1008   1.286       .  A
O1004     Ni1006   1.936       .  S
O1004      C1007   1.285       .  A
Ni1005    Ni1006   2.388       .  S
C1008      C1039   1.478   1_556  S
C1009      C1029   1.474   1_556  S
O1011      C1021   1.281   1_455  A
O1012     Ni1019   1.922       .  S
O1013      C1023   1.284       .  A
O1014     Ni1019   1.920       .  S
O1015      C1024   1.282       .  A
O1016      C1023   1.280       .  A
O1017      C1022   1.283       .  A
O1018      C1021   1.282       .  A
C1021      C1047   1.470       .  S
C1024      C1033   1.472       .  S
C1025      N1026   1.356       .  A
C1025      N1030   1.362       .  A
C1025      C1148   1.487       .  S
N1026      C1027   1.354       .  A
C1027      N1028   1.357       .  A
C1027      C1157   1.474       .  S
N1028      C1029   1.362       .  A
C1029      N1030   1.368       .  A
C1031      N1032   1.357       .  A
C1031      N1036   1.351       .  A
C1031      C1124   1.470       .  S
N1032      C1033   1.360       .  A
C1033      N1034   1.363       .  A
N1034      C1035   1.362       .  A
C1035      N1036   1.357       .  A
C1035      C1136   1.490       .  S
C1037      N1038   1.365       .  A
C1037      N1042   1.359       .  A
C1037      C1097   1.500       .  S
N1038      C1039   1.364       .  A
C1039      N1040   1.358       .  A
N1040      C1041   1.358       .  A
C1041      N1042   1.358       .  A
C1041      C1109   1.471       .  S
C1043      N1044   1.350       .  A
C1043      N1048   1.358       .  A
C1043      C1085   1.466       .  S
N1044      C1045   1.354       .  A
C1045      N1046   1.359       .  A
C1045      C1073   1.478       .  S
N1046      C1047   1.361       .  A
C1047      N1048   1.362       .  A
C1049      C1050   1.538       .  S
C1049      C1053   1.535       .  S
C1049      C1121   1.535       .  S
C1050      H1057   1.086       .  S
C1050      C1051   1.364       .  D
C1051      C1112   1.471       .  S
C1052      C1056   1.539       .  S
C1052      C1054   1.544       .  S
C1052      H1058   1.108       .  S
C1053      H1059   1.086       .  S
C1054      C1088   1.493       .  S
C1055      H1060   1.081       .  S
C1055      C1056   1.365       .  D
C1056      C1160   1.487       .  S
C1061      C1067   1.537       .  S
C1061      C1065   1.534       .  S
C1061      C1076   1.529       .  S
C1062      H1069   1.086       .  S
C1062      C1063   1.365       .  D
C1063      C1064   1.543       .  S
C1063      C1145   1.490       .  S
C1064      C1066   1.544       .  S
C1064      H1070   1.110       .  S
C1065      H1071   1.086       .  S
C1066      C1133   1.485       .  S
C1067      H1072   1.084       .  S
C1067      C1068   1.362       .  D
C1068      C1100   1.489       .  S
C1073      C1074   1.402       .  A
C1073      C1078   1.408       .  A
C1074      C1075   1.404       .  A
C1074      H1079   1.083   1_565  S
C1075      C1076   1.418       .  A
C1076      C1077   1.407       .  A
C1077      C1078   1.393       .  A
C1077      H1081   1.079       .  S
C1078      O1082   1.373       .  S
O1080      H1084   0.992       .  S
O1082      H1083   0.992       .  S
C1085      C1086   1.399       .  A
C1085      C1090   1.402       .  A
C1086      C1087   1.403       .  A
C1086      H1091   1.084       .  S
C1087      C1088   1.415       .  A
C1088      C1089   1.408       .  A
C1089      C1090   1.399       .  A
C1089      H1093   1.083       .  S
C1090      O1094   1.372       .  S
O1092      H1096   0.992       .  S
O1094      H1095   0.992       .  S
C1097      C1098   1.413       .  A
C1097      C1102   1.414       .  A
C1098      C1099   1.405       .  A
C1098      H1103   1.083       .  S
C1099      C1100   1.405       .  A
C1099      O1104   1.371       .  S
C1100      C1101   1.405       .  A
C1101      C1102   1.403       .  A
C1101      H1105   1.084       .  S
C1102      O1106   1.371       .  S
O1104      H1108   0.992       .  S
O1106      H1107   0.992       .  S
C1109      C1110   1.402       .  A
C1109      C1114   1.409       .  A
C1110      C1111   1.396       .  A
C1110      H1115   1.084       .  S
C1111      C1112   1.405       .  A
C1111      O1116   1.374       .  S
C1112      C1113   1.401       .  A
C1113      C1114   1.404       .  A
C1113      H1117   1.084       .  S
C1114      O1118   1.371       .  S
O1116      H1120   0.991       .  S
O1118      H1119   0.992       .  S
C1121      C1122   1.414       .  A
C1121      C1126   1.417       .  A
C1122      C1123   1.397       .  A
C1123      C1124   1.401       .  A
C1124      C1125   1.400       .  A
C1125      C1126   1.403       .  A
C1125      H1129   1.084       .  S
C1126      O1130   1.373       .  S
O1128      H1132   0.992       .  S
O1130      H1131   0.992       .  S
C1133      C1134   1.406       .  A
C1133      C1138   1.406       .  A
C1134      C1135   1.405       .  A
C1135      C1136   1.414       .  A
C1136      C1137   1.408       .  A
C1137      C1138   1.393       .  A
C1137      H1141   1.083       .  S
C1138      O1142   1.371       .  S
O1140      H1144   0.992       .  S
O1142      H1143   0.992       .  S
C1145      C1146   1.406       .  A
C1145      C1150   1.410       .  A
C1146      C1147   1.412       .  A
C1146      H1151   1.083       .  S
C1147      C1148   1.412       .  A
C1147      O1152   1.371       .  S
C1148      C1149   1.403       .  A
C1149      C1150   1.396       .  A
C1149      H1153   1.084       .  S
C1150      O1154   1.374       .  S
O1152      H1156   0.992       .  S
O1154      H1155   0.992       .  S
C1157      C1158   1.404       .  A
C1157      C1162   1.406       .  A
C1158      C1159   1.407       .  A
C1158      H1163   1.083       .  S
C1159      C1160   1.410       .  A
C1159      O1164   1.371       .  S
C1160      C1161   1.405       .  A
C1161      C1162   1.395       .  A
C1161      H1165   1.084       .  S
C1162      O1166   1.372       .  S
O1164      H1168   0.992       .  S
O1166      H1167   0.992       .  S
C1169      C1170   1.411       .  A
C1169      C1174   1.414       .  A
C1170      C1171   1.405       .  A
C1170      H1175   1.083       .  S
C1171      C1172   1.407       .  A
C1171      O1176   1.371       .  S
C1172      C1173   1.405       .  A
C1173      C1174   1.401       .  A
C1173      H1177   1.084   1_565  S
C1174      O1178   1.371   1_565  S
O1176      H1180   0.992       .  S
O1178      H1179   0.992       .  S
C1181      C1182   1.412       .  A
C1181      C1186   1.417       .  A
C1182      C1183   1.398       .  A
C1183      C1184   1.407       .  A
C1183      O1188   1.372   1_655  S
C1184      C1185   1.402       .  A
C1185      C1186   1.405       .  A
C1185      H1189   1.084       .  S
C1186      O1190   1.374       .  S
O1190      H1191   0.992       .  S
C1193      C1194   1.405       .  A
C1193      C1198   1.402       .  A
C1194      C1195   1.405       .  A
C1194      H1199   1.084       .  S
C1195      C1196   1.411       .  A
C1195      O1200   1.371       .  S
C1196      C1197   1.408       .  A
C1197      C1198   1.397       .  A
C1197      H1201   1.083       .  S
C1198      O1202   1.369       .  S
O1200      H1204   0.992       .  S
O1202      H1203   0.992       .  S
C1205      C1206   1.405       .  A
C1205      C1210   1.406       .  A
C1206      C1207   1.404       .  A
C1206      H1211   1.084       .  S
C1207      C1208   1.407       .  A
C1207      O1212   1.372       .  S
C1208      C1209   1.400       .  A
C1209      C1210   1.394       .  A
C1209      H1213   1.084       .  S
C1210      O1214   1.371       .  S
O1212      H1216   0.991       .  S
O1214      H1215   0.992       .  S
C1217      C1218   1.404       .  A
C1217      C1222   1.405       .  A
C1219      O1224   1.368       .  S
C1220      C1221   1.409       .  A
C1221      C1222   1.398       .  A
C1221      H1225   1.083       .  S
C1222      O1226   1.373       .  S
O1224      H1228   0.992       .  S
O1226      H1227   0.992       .  S
C1229      C1230   1.410       .  A
C1229      C1234   1.419       .  A
C1230      C1231   1.407       .  A
C1230      H1235   1.083       .  S
C1231      C1232   1.408       .  A
C1232      C1233   1.399       .  A
C1233      C1234   1.399       .  A
C1233      H1237   1.084       .  S
C1234      O1238   1.371       .  S
O1236      H1240   0.992       .  S
O1238      H1239   0.992       .  S
C1241      C1242   1.405       .  A
C1241      C1246   1.411       .  A
C1242      C1243   1.410       .  A
C1242      H1247   1.083       .  S
C1243      C1244   1.418       .  A
C1243      O1248   1.371       .  S
C1244      C1245   1.407       .  A
C1245      C1246   1.392       .  A
C1245      H1249   1.080       .  S
C1246      O1250   1.373       .  S
O1248      H1252   0.992       .  S
O1250      H1251   0.992       .  S
C1253      C1254   1.404       .  A
C1253      C1258   1.415       .  A
C1254      C1255   1.403       .  A
C1254      H1259   1.083       .  S
C1255      C1256   1.415       .  A
C1255      O1260   1.371       .  S
C1256      C1257   1.401       .  A
C1257      C1258   1.402       .  A
C1257      H1261   1.083       .  S
C1258      O1262   1.374       .  S
O1260      H1264   0.992       .  S
O1262      H1263   0.991       .  S
