geometry optimzed in LAMMPS
_audit_creation_date              2020-11-30 
_audit_creation_method            'lammps2cif' 
_symmetry_space_group_name_H-M    'P1' 
_symmetry_Int_Tables_number       1 
_symmetry_cell_setting            triclinic 
loop_ 
_symmetry_equiv_pos_as_xyz 
  x,y,z 
_cell_length_a                    56.28149743 
_cell_length_b                    56.33088928257828 
_cell_length_c                    40.55136881494875 
_cell_angle_alpha                 89.97108928208033 
_cell_angle_beta                  89.95178526643839 
_cell_angle_gamma                 90.01572882159427 
loop_ 
_atom_site_label 
_atom_site_type_symbol 
_atom_site_fract_x 
_atom_site_fract_y 
_atom_site_fract_z 
_atom_site_charge 
N1          N  0.31932219  0.03426478  0.59756224    -0.26900
N2          N  0.33823049  0.04435685  0.58417355    -0.34800
C3          C  0.34443289  0.03217637  0.55697215     0.01400
C4          C  0.32862941  0.01364499  0.55327465     0.07400
C5          C  0.31295632  0.01539612  0.57929581    -0.05700
H6          H  0.35939314  0.03642557  0.54126031     0.08100
H7          H  0.29813068  0.00379066  0.58471148     0.09300
Cu8        Cu  0.35497900  0.07377377  0.60416977     0.44200
Cu9        Cu  0.30345219  0.04628993  0.64037958     0.42000
Cu10       Cu  0.33252061  0.09514195  0.68252513     0.43900
N11         N  0.36973725  0.10182380  0.63009172    -0.34300
N12         N  0.36183719  0.10937538  0.65892184    -0.28600
C13         C  0.37557956  0.12741285  0.66927750    -0.04700
C14         C  0.39298668  0.13151681  0.64574146     0.07500
C15         C  0.38865134  0.11490507  0.62124747     0.01300
H16         H  0.37280889  0.13697500  0.69207432     0.09000
H17         H  0.39861449  0.11222185  0.59874594     0.08100
N18         N  0.30225342  0.07839164  0.69975572    -0.35800
N19         N  0.29158217  0.06069659  0.68425145    -0.28000
C20         C  0.27254428  0.05379596  0.70184154    -0.03200
C21         C  0.27132850  0.06782869  0.72959262     0.05400
C22         C  0.29029293  0.08324042  0.72765384     0.03500
H23         H  0.26061469  0.03956601  0.69497489     0.08600
H24         H  0.29511438  0.09689701  0.74517674     0.07400
O25         O  0.47359963  0.26136937  0.61835784    -0.72600
O26         O  0.52457483  0.21186132  0.61890172    -0.73600
O27         O  0.47437957  0.21115267  0.61942983    -0.62200
O28         O  0.52388036  0.26205000  0.61774397    -0.70600
O29         O  0.52416500  0.26274486  0.67241038    -0.70200
O30         O  0.47441457  0.21159656  0.67411240    -0.61400
O31         O  0.52488068  0.21246287  0.67358068    -0.73900
O32         O  0.47373828  0.26178104  0.67304423    -0.72700
Cu33       Cu  0.49910674  0.23659198  0.61672997     1.04600
Cu34       Cu  0.49932722  0.23717358  0.67521346     1.04300
C35         C  0.46548552  0.26932542  0.64563450     0.93600
C36         C  0.53280807  0.20430688  0.64631359     0.92700
C37         C  0.46647431  0.20333577  0.64690920     0.84900
C38         C  0.53191344  0.27047292  0.64476560     0.91200
N39         N  0.70144702  0.05636409  0.69334867    -0.26900
N40         N  0.69099025  0.07496521  0.70698556    -0.34800
C41         C  0.70257552  0.08087424  0.73473800     0.01400
C42         C  0.72115050  0.06525058  0.73871272     0.07400
C43         C  0.72005359  0.04992303  0.71218730    -0.05700
H44         H  0.69799371  0.09567653  0.75051077     0.08100
H45         H  0.73202913  0.03542379  0.70670634     0.09300
Cu46       Cu  0.66211817  0.09232340  0.68708622     0.44200
Cu47       Cu  0.69023055  0.04126646  0.64924600     0.42000
Cu48       Cu  0.64062677  0.07107512  0.60925086     0.43900
N49         N  0.63429242  0.10780926  0.66203492    -0.34300
N50         N  0.62656700  0.10020920  0.63318259    -0.28600
C51         C  0.60860127  0.11413998  0.62318136    -0.04700
C52         C  0.60477334  0.13132914  0.64702300     0.07500
C53         C  0.62141662  0.12672126  0.67132229     0.01300
H54         H  0.59886534  0.11163293  0.60046415     0.09000
H55         H  0.62421445  0.13647755  0.69395411     0.08100
N56         N  0.65720458  0.04128167  0.59051933    -0.35800
N57         N  0.67524127  0.03035403  0.60492778    -0.28000
C58         C  0.68158926  0.01156943  0.58642140    -0.03200
C59         C  0.66681626  0.01079791  0.55930443     0.05400
C60         C  0.65158160  0.02978231  0.56255745     0.03500
H61         H  0.69578964  0.99935843  0.59238862     0.08600
H62         H  0.63738350  0.03483305  0.54599902     0.07400
N63         N  0.29489881  0.41489495  0.69361590    -0.26900
N64         N  0.30459841  0.39569039  0.70670123    -0.34800
C65         C  0.29266676  0.38981859  0.73424289     0.01400
C66         C  0.27469566  0.40612104  0.73856688     0.07400
C67         C  0.27648670  0.42177073  0.71251116    -0.05700
H68         H  0.29676120  0.37477013  0.74983549     0.08100
H69         H  0.26527606  0.43696566  0.70757285     0.09300
Cu70       Cu  0.33334387  0.37807959  0.68653955     0.44200
Cu71       Cu  0.30708245  0.43072413  0.65066036     0.42000
Cu72       Cu  0.35624885  0.40157362  0.60973995     0.43900
N73         N  0.36133943  0.36312876  0.66093152    -0.34300
N74         N  0.36948705  0.37147164  0.63264294    -0.28600
C75         C  0.38765299  0.35781663  0.62251397    -0.04700
C76         C  0.39122976  0.34008212  0.64567042     0.07500
C77         C  0.37417061  0.34403704  0.66968571     0.01300
H78         H  0.39786716  0.36101910  0.60034709     0.09000
H79         H  0.37121374  0.33384684  0.69192925     0.08100
N80         N  0.34022484  0.43220557  0.59221291    -0.35800
N81         N  0.32227474  0.44285091  0.60722585    -0.28000
C82         C  0.31583910  0.46204437  0.58963591    -0.03200
C83         C  0.33044015  0.46344697  0.56238329     0.05400
C84         C  0.34570580  0.44435403  0.56465043     0.03500
H85         H  0.30153504  0.47398620  0.59616508     0.08600
H86         H  0.35967058  0.43956194  0.54754891     0.07400
N87         N  0.67786382  0.44029340  0.59331005    -0.26900
N88         N  0.65897528  0.43016606  0.57994894    -0.34800
C89         C  0.65233872  0.44268445  0.55327728     0.01400
C90         C  0.66781013  0.46148527  0.54985979     0.07400
C91         C  0.68377555  0.45954973  0.57548332    -0.05700
H92         H  0.63728597  0.43847992  0.53775140     0.08100
H93         H  0.69847369  0.47129296  0.58094302     0.09300
Cu94       Cu  0.64251677  0.40037994  0.59907890     0.44200
Cu95       Cu  0.69429978  0.42794267  0.63562501     0.42000
Cu96       Cu  0.66457303  0.37989564  0.67794066     0.43900
N97         N  0.62780405  0.37240481  0.62502088    -0.34300
N98         N  0.63541392  0.36538149  0.65425643    -0.28600
C99         C  0.62165624  0.34744235  0.66489990    -0.04700
C100        C  0.60463566  0.34284073  0.64110340     0.07500
C101        C  0.60912800  0.35900242  0.61612493     0.01300
H102        H  0.62416500  0.33820986  0.68802705     0.09000
H103        H  0.59935194  0.36117433  0.59336823     0.08100
N104        N  0.69534725  0.39585165  0.69499536    -0.35800
N105        N  0.70639219  0.41324418  0.67929670    -0.28000
C106        C  0.72583027  0.41950779  0.69649493    -0.03200
C107        C  0.72693145  0.40536691  0.72421269     0.05400
C108        C  0.70744251  0.39057449  0.72262926     0.03500
H109        H  0.73812231  0.43337631  0.68939067     0.08600
H110        H  0.70239014  0.37700796  0.74019199     0.07400
N111        N  0.29482597  0.91741332  0.34703043    -0.26900
N112        N  0.30471186  0.89837030  0.33375845    -0.34800
C113        C  0.29274960  0.89245077  0.30627323     0.01400
C114        C  0.27456076  0.90856096  0.30214816     0.07400
C115        C  0.27628345  0.92414404  0.32828964    -0.05700
H116        H  0.29682773  0.87736454  0.29075710     0.08100
H117        H  0.26476229  0.93904049  0.33359034     0.09300
Cu118      Cu  0.33346602  0.88076763  0.35405951     0.44200
Cu119      Cu  0.30651457  0.93273007  0.39065701     0.42000
Cu120      Cu  0.35505922  0.90260077  0.43221788     0.43900
N121        N  0.36137284  0.86553594  0.37963583    -0.34300
N122        N  0.36905869  0.87330434  0.40844695    -0.28600
C123        C  0.38705795  0.85945889  0.41863632    -0.04700
C124        C  0.39098271  0.84215407  0.39499417     0.07500
C125        C  0.37434616  0.84660912  0.37059866     0.01300
H126        H  0.39678089  0.86211461  0.44132753     0.09000
H127        H  0.37163969  0.83673875  0.34804325     0.08100
N128        N  0.33856039  0.93269331  0.45033367    -0.35800
N129        N  0.32095307  0.94378461  0.43517464    -0.28000
C130        C  0.31455456  0.96280540  0.45316105    -0.03200
C131        C  0.32883480  0.96357601  0.48077027     0.05400
C132        C  0.34383993  0.94432905  0.47832985     0.03500
H133        H  0.30067294  0.97519138  0.44648480     0.08600
H134        H  0.35769513  0.93923793  0.49541434     0.07400
O135        O  0.52295590  0.71216990  0.42164072    -0.72600
O136        O  0.47170033  0.76159542  0.42292436    -0.73600
O137        O  0.47270701  0.71118075  0.42185232    -0.62200
O138        O  0.52211659  0.76245795  0.42276894    -0.70600
O139        O  0.52191310  0.76312820  0.36810345    -0.70200
O140        O  0.47259966  0.71161142  0.36717924    -0.61400
O141        O  0.47156355  0.76187843  0.36824601    -0.73900
O142        O  0.52303930  0.71301374  0.36694964    -0.72700
Cu143      Cu  0.49735789  0.73683741  0.42421109     1.04600
Cu144      Cu  0.49726100  0.73743534  0.36573276     1.04300
C145        C  0.53116399  0.70484217  0.39407298     0.93600
C146        C  0.46349997  0.76955822  0.39569461     0.92700
C147        C  0.46485322  0.70321319  0.39443791     0.84900
C148        C  0.52995545  0.77083382  0.39555506     0.91200
N149        N  0.70409805  0.91389681  0.35500881    -0.26900
N150        N  0.69450015  0.89489010  0.34122250    -0.34800
C151        C  0.70681772  0.88936620  0.31385433     0.01400
C152        C  0.72488212  0.90571050  0.31041289     0.07400
C153        C  0.72275182  0.92100181  0.33676214    -0.05700
H154        H  0.70285351  0.87460226  0.29770331     0.08100
H155        H  0.73388124  0.93614698  0.34231836     0.09300
Cu156      Cu  0.66496704  0.87742559  0.35975024     0.44200
Cu157      Cu  0.69161118  0.92942864  0.39790739     0.42000
Cu158      Cu  0.64097403  0.90105273  0.43562547     0.43900
N159        N  0.63526404  0.86367905  0.38316408    -0.34300
N160        N  0.62686362  0.87205485  0.41128484    -0.28600
C161        C  0.60783241  0.85920287  0.42032837    -0.04700
C162        C  0.60390500  0.84200188  0.39660750     0.07500
C163        C  0.62162129  0.84540145  0.37334731     0.01300
H164        H  0.59739668  0.86246054  0.44227787     0.09000
H165        H  0.62459238  0.83518792  0.35114260     0.08100
N166        N  0.65723800  0.93095596  0.45471757    -0.35800
N167        N  0.67579810  0.94139639  0.44090291    -0.28000
C168        C  0.68206831  0.96030806  0.45916523    -0.03200
C169        C  0.66667436  0.96170638  0.48556540     0.05400
C170        C  0.65115713  0.94293400  0.48212444     0.03500
H171        H  0.69671895  0.97209795  0.45360537     0.08600
H172        H  0.63655571  0.93828745  0.49826596     0.07400
N173        N  0.31721116  0.53483994  0.44674429    -0.26900
N174        N  0.33639290  0.54492614  0.45931776    -0.34800
C175        C  0.34330703  0.53266094  0.48610756     0.01400
C176        C  0.32771411  0.51403307  0.49045902     0.07400
C177        C  0.31138135  0.51585144  0.46521448    -0.05700
H178        H  0.35872560  0.53681519  0.50095305     0.08100
H179        H  0.29658635  0.50409987  0.46032033     0.09300
Cu180      Cu  0.35293156  0.57413405  0.43847593     0.44200
Cu181      Cu  0.30068302  0.54688178  0.40420264     0.42000
Cu182      Cu  0.32951783  0.59592473  0.36105760     0.43900
N183        N  0.36789600  0.60182776  0.41208304    -0.34300
N184        N  0.35967050  0.60966576  0.38357969    -0.28600
C185        C  0.37370872  0.62742797  0.37288607    -0.04700
C186        C  0.39160749  0.63101403  0.39587899     0.07500
C187        C  0.38726729  0.61439980  0.42036889     0.01300
H188        H  0.37079814  0.63722535  0.35030567     0.09000
H189        H  0.39749910  0.61142327  0.44254781     0.08100
N190        N  0.29899132  0.57897372  0.34448365    -0.35800
N191        N  0.28848868  0.56125252  0.36024578    -0.28000
C192        C  0.26936646  0.55422548  0.34290924    -0.03200
C193        C  0.26785885  0.56818428  0.31504863     0.05400
C194        C  0.28680797  0.58367938  0.31669799     0.03500
H195        H  0.25755990  0.53994270  0.35001609     0.08600
H196        H  0.29147869  0.59729615  0.29900800     0.07400
N197        N  0.70146372  0.55860614  0.34540965    -0.26900
N198        N  0.69196413  0.57778172  0.33195695    -0.34800
C199        C  0.70383530  0.58308799  0.30412887     0.01400
C200        C  0.72152347  0.56642743  0.30002231     0.07400
C201        C  0.71963765  0.55117707  0.32649537    -0.05700
H202        H  0.69988436  0.59798006  0.28817969     0.08100
H203        H  0.73064555  0.53588558  0.33173002     0.09300
Cu204      Cu  0.66328933  0.59583011  0.35178127     0.44200
Cu205      Cu  0.68940771  0.54341304  0.38879134     0.42000
Cu206      Cu  0.63850804  0.57101970  0.42677083     0.43900
N207        N  0.63436670  0.61006325  0.37633820    -0.34300
N208        N  0.62540788  0.60095883  0.40367735    -0.28600
C209        C  0.60692283  0.61425004  0.41349740    -0.04700
C210        C  0.60400230  0.63267534  0.39123586     0.07500
C211        C  0.62175275  0.62939733  0.36794642     0.01300
H212        H  0.59629551  0.61049636  0.43510231     0.09000
H213        H  0.62545507  0.64030385  0.34660064     0.08100
N214        N  0.65540489  0.54158752  0.44606243    -0.35800
N215        N  0.67414391  0.53152507  0.43220743    -0.28000
C216        C  0.68107753  0.51301585  0.45078744    -0.03200
C217        C  0.66595253  0.51150108  0.47745426     0.05400
C218        C  0.64987222  0.52976635  0.47384189     0.03500
H219        H  0.69597436  0.50155230  0.44523016     0.08600
H220        H  0.63527221  0.53417416  0.49010126     0.07400
O221        O  0.97192322  0.71031456  0.17052983    -0.72600
O222        O  0.02140998  0.76158545  0.17312014    -0.73600
O223        O  0.97112298  0.76051690  0.17209207    -0.62200
O224        O  0.02230753  0.71132785  0.17153018    -0.70600
O225        O  0.02298136  0.71212863  0.11686352    -0.70200
O226        O  0.97163990  0.76126748  0.11741093    -0.61400
O227        O  0.02177350  0.76246795  0.11845444    -0.73900
O228        O  0.97266424  0.71092097  0.11586360    -0.72700
Cu229      Cu  0.99667174  0.73588192  0.17371759     1.04600
Cu230      Cu  0.99728517  0.73671228  0.11524467     1.04300
C231        C  0.96441926  0.70252082  0.14283055     0.93600
C232        C  0.02933640  0.77024655  0.14613072     0.92700
C233        C  0.96335201  0.76878567  0.14482132     0.84900
C234        C  0.03079706  0.70394096  0.14416460     0.91200
N235        N  0.17617556  0.93939195  0.09693304    -0.26900
N236        N  0.15701610  0.92925350  0.08438898    -0.34800
C237        C  0.15075275  0.94072559  0.05665263     0.01400
C238        C  0.16677150  0.95887879  0.05165386     0.07400
C239        C  0.18264845  0.95764345  0.07749623    -0.05700
H240        H  0.13552539  0.93632882  0.04156205     0.08100
H241        H  0.19759853  0.96926343  0.08207946     0.09300
Cu242      Cu  0.13985696  0.90085144  0.10608619     0.44200
Cu243      Cu  0.19201418  0.92819199  0.14035832     0.42000
Cu244      Cu  0.16260682  0.87939028  0.18369440     0.43900
N245        N  0.12476895  0.87317847  0.13213537    -0.34300
N246        N  0.13280849  0.86532429  0.16071874    -0.28600
C247        C  0.11896617  0.84725738  0.17089267    -0.04700
C248        C  0.10140436  0.84352003  0.14744486     0.07500
C249        C  0.10571778  0.86035562  0.12326647     0.01300
H250        H  0.12182642  0.83732200  0.19336909     0.09000
H251        H  0.09575235  0.86324909  0.10083400     0.08100
N252        N  0.19307263  0.89636288  0.20037490    -0.35800
N253        N  0.20377154  0.91395972  0.18459227    -0.28000
C254        C  0.22296929  0.92078158  0.20191920    -0.03200
C255        C  0.22430538  0.90682593  0.22979587     0.05400
C256        C  0.20519303  0.89154473  0.22816523     0.03500
H257        H  0.23501223  0.93483888  0.19470705     0.08600
H258        H  0.20043856  0.87790872  0.24578315     0.07400
N259        N  0.17515057  0.53107182  0.10625126    -0.26900
N260        N  0.15749066  0.54181586  0.09072233    -0.34800
C261        C  0.15239805  0.52976398  0.06300176     0.01400
C262        C  0.16761060  0.51064915  0.06112462     0.07400
C263        C  0.18179735  0.51190390  0.08876743    -0.05700
H264        H  0.13855425  0.53450271  0.04570478     0.08100
H265        H  0.19576271  0.49972739  0.09583920     0.09300
Cu266      Cu  0.14068274  0.57202165  0.10792257     0.44200
Cu267      Cu  0.18913580  0.54241800  0.15086417     0.42000
Cu268      Cu  0.16018867  0.59280879  0.18779875     0.43900
N269        N  0.12625259  0.60116474  0.13157446    -0.34300
N270        N  0.13313557  0.60843436  0.16102331    -0.28600
C271        C  0.11990603  0.62717323  0.17002834    -0.04700
C272        C  0.10391883  0.63203319  0.14498072     0.07500
C273        C  0.10851861  0.61518379  0.12093110     0.01300
H274        H  0.12194069  0.63657907  0.19309696     0.09000
H275        H  0.09933835  0.61286918  0.09773474     0.08100
N276        N  0.18864819  0.57544176  0.20917092    -0.35800
N277        N  0.19942551  0.55701088  0.19559888    -0.28000
C278        C  0.21771319  0.55042560  0.21491138    -0.03200
C279        C  0.21832357  0.56546433  0.24176495     0.05400
C280        C  0.19974701  0.58110450  0.23744521     0.03500
H281        H  0.22987612  0.53607653  0.20946064     0.08600
H282        H  0.19492812  0.59580895  0.25325700     0.07400
N283        N  0.82183071  0.94364695  0.10594138    -0.26900
N284        N  0.83999838  0.93324285  0.09110471    -0.34800
C285        C  0.84546275  0.94543318  0.06361590     0.01400
C286        C  0.82995693  0.96428039  0.06121240     0.07400
C287        C  0.81522481  0.96273840  0.08828543    -0.05700
H288        H  0.85956862  0.94081732  0.04664346     0.08100
H289        H  0.80072368  0.97448954  0.09464285     0.09300
Cu290      Cu  0.85647386  0.90295547  0.10857656     0.44200
Cu291      Cu  0.80661303  0.93149521  0.14925944     0.42000
Cu292      Cu  0.83409361  0.88034004  0.18619692     0.43900
N293        N  0.87014114  0.87346605  0.13223331    -0.34300
N294        N  0.86215682  0.86548699  0.16080183    -0.28600
C295        C  0.87500045  0.84651042  0.16987410    -0.04700
C296        C  0.89190457  0.84223984  0.14578248     0.07500
C297        C  0.88824922  0.85969819  0.12224469     0.01300
H298        H  0.87199268  0.83648728  0.19224755     0.09000
H299        H  0.89820111  0.86251163  0.09974977     0.08100
N300        N  0.80501238  0.89735286  0.20620884    -0.35800
N301        N  0.79478705  0.91607954  0.19261045    -0.28000
C302        C  0.77608119  0.92259889  0.21116618    -0.03200
C303        C  0.77464232  0.90719751  0.23753946     0.05400
C304        C  0.79314164  0.89141815  0.23377183     0.03500
H305        H  0.76434490  0.93728958  0.20567269     0.08600
H306        H  0.79753211  0.87658932  0.24961252     0.07400
N307        N  0.81637640  0.53413184  0.09140200    -0.26900
N308        N  0.83471689  0.54481907  0.07737029    -0.34800
C309        C  0.84104381  0.53268622  0.05020131     0.01400
C310        C  0.82594711  0.51354233  0.04715703     0.07400
C311        C  0.81052382  0.51489339  0.07353015    -0.05700
H312        H  0.85581710  0.53722082  0.03430190     0.08100
H313        H  0.79640499  0.50261237  0.07966303     0.09300
Cu314      Cu  0.85135833  0.57438965  0.09688723     0.44200
Cu315      Cu  0.80102983  0.54540140  0.13511648     0.42000
Cu316      Cu  0.83056943  0.59409539  0.17669914     0.43900
N317        N  0.86690347  0.60174170  0.12319814    -0.34300
N318        N  0.85956170  0.60870054  0.15258735    -0.28600
C319        C  0.87369800  0.62631640  0.16327118    -0.04700
C320        C  0.89080925  0.63075543  0.13940036     0.07500
C321        C  0.88586336  0.61477245  0.11432813     0.01300
H322        H  0.87140581  0.63534434  0.18658435     0.09000
H323        H  0.89543835  0.61247833  0.09141987     0.08100
N324        N  0.80082759  0.57693324  0.19510748    -0.35800
N325        N  0.78996459  0.55922423  0.17988824    -0.28000
C326        C  0.77123874  0.55222839  0.19810559    -0.03200
C327        C  0.77042195  0.56623000  0.22596546     0.05400
C328        C  0.78931306  0.58169806  0.22340136     0.03500
H329        H  0.75911260  0.53811674  0.19143578     0.08600
H330        H  0.79426067  0.59549134  0.24064648     0.07400
O331        O  0.97461867  0.21085803  0.86828580    -0.72600
O332        O  0.02443792  0.26160872  0.86867773    -0.73600
O333        O  0.02494281  0.21160880  0.86902585    -0.62200
O334        O  0.97411372  0.26106792  0.86792896    -0.70600
O335        O  0.97366197  0.26134846  0.92261287    -0.70200
O336        O  0.02460118  0.21159583  0.92371429    -0.61400
O337        O  0.02395721  0.26180141  0.92336517    -0.73900
O338        O  0.97421302  0.21088876  0.92296244    -0.72700
Cu339      Cu  0.99952627  0.23627412  0.86660291     1.04600
Cu340      Cu  0.99907122  0.23640916  0.92509366     1.04300
C341        C  0.96653066  0.20278591  0.89552676     0.93600
C342        C  0.03216302  0.26968043  0.89608197     0.92700
C343        C  0.03295699  0.20386113  0.89644942     0.84900
C344        C  0.96586154  0.26912769  0.89505502     0.91200
N345        N  0.17785490  0.43956549  0.94496901    -0.26900
N346        N  0.15845072  0.43001365  0.95777086    -0.34800
C347        C  0.15225557  0.44218888  0.98495655     0.01400
C348        C  0.16856569  0.46016616  0.98930082     0.07400
C349        C  0.18453977  0.45810381  0.96366983    -0.05700
H350        H  0.13690605  0.43835918  0.00014687     0.08100
H351        H  0.19972803  0.46934375  0.95873239     0.09300
Cu352      Cu  0.14092558  0.40133470  0.93737923     0.44200
Cu353      Cu  0.19400792  0.42746020  0.90223686     0.42000
Cu354      Cu  0.16519449  0.37841576  0.86112703     0.43900
N355        N  0.12661009  0.37300911  0.91187899    -0.34300
N356        N  0.13528523  0.36481332  0.88383209    -0.28600
C357        C  0.12205087  0.34632934  0.87381680    -0.04700
C358        C  0.10424115  0.34259860  0.89682647     0.07500
C359        C  0.10769704  0.35989658  0.92059735     0.01300
H360        H  0.12555707  0.33607138  0.85180622     0.09000
H361        H  0.09726016  0.36285837  0.94262082     0.08100
N362        N  0.19552034  0.39476818  0.84356628    -0.35800
N363        N  0.20613095  0.41272268  0.85854885    -0.28000
C364        C  0.22504561  0.41951080  0.84056153    -0.03200
C365        C  0.22622618  0.40509766  0.81312448     0.05400
C366        C  0.20736940  0.38960699  0.81569254     0.03500
H367        H  0.23687984  0.43394798  0.84688828     0.08600
H368        H  0.20247508  0.37574800  0.79851808     0.07400
N369        N  0.17447703  0.02907170  0.93395449    -0.26900
N370        N  0.15654357  0.03982835  0.94884504    -0.34800
C371        C  0.15072103  0.02760737  0.97617095     0.01400
C372        C  0.16572770  0.00834218  0.97840151     0.07400
C373        C  0.18056880  0.00970791  0.95140846    -0.05700
H374        H  0.13667013  0.03244909  0.99310865     0.08100
H375        H  0.19476053  0.99761780  0.94493333     0.09300
Cu376      Cu  0.14072044  0.07050561  0.93145573     0.44200
Cu377      Cu  0.18986150  0.04111511  0.89068722     0.42000
Cu378      Cu  0.16260313  0.09283485  0.85376141     0.43900
N379        N  0.12733333  0.10035938  0.90834518    -0.34300
N380        N  0.13508963  0.10823815  0.87960756    -0.28600
C381        C  0.12245298  0.12744171  0.87087683    -0.04700
C382        C  0.10594745  0.13196340  0.89541286     0.07500
C383        C  0.10960045  0.11442558  0.91881466     0.01300
H384        H  0.12525909  0.13739463  0.84838928     0.09000
H385        H  0.09979703  0.11170194  0.94145714     0.08100
N386        N  0.19152997  0.07551693  0.83392815    -0.35800
N387        N  0.20166464  0.05669922  0.84744028    -0.28000
C388        C  0.22034682  0.05015631  0.82885905    -0.03200
C389        C  0.22184041  0.06563494  0.80259225     0.05400
C390        C  0.20343359  0.08148109  0.80642732     0.03500
H391        H  0.23202380  0.03540145  0.83426659     0.08600
H392        H  0.19912840  0.09638693  0.79068027     0.07400
N393        N  0.81904242  0.03387503  0.94334337    -0.26900
N394        N  0.83860059  0.04335552  0.95569396    -0.34800
C395        C  0.84486819  0.03136133  0.98298037     0.01400
C396        C  0.82843875  0.01357640  0.98787855     0.07400
C397        C  0.81230543  0.01554309  0.96244921    -0.05700
H398        H  0.86031427  0.03522432  0.99792198     0.08100
H399        H  0.79695358  0.00443308  0.95798036     0.09300
Cu400      Cu  0.85611648  0.07181099  0.93468670     0.44200
Cu401      Cu  0.80288064  0.04612017  0.90082015     0.42000
Cu402      Cu  0.83285534  0.09447199  0.85789240     0.43900
N403        N  0.87105637  0.09987257  0.90927254    -0.34300
N404        N  0.86291519  0.10798967  0.88087703    -0.28600
C405        C  0.87662547  0.12623857  0.87103614    -0.04700
C406        C  0.89414464  0.12987731  0.89454488     0.07500
C407        C  0.89000390  0.11277914  0.91840381     0.01300
H408        H  0.87364863  0.13643625  0.84881508     0.09000
H409        H  0.90002432  0.10979621  0.94077169     0.08100
N410        N  0.80178054  0.07847083  0.84150155    -0.35800
N411        N  0.79087096  0.06100653  0.85727124    -0.28000
C412        C  0.77157385  0.05442568  0.84001771    -0.03200
C413        C  0.77038247  0.06839751  0.81217596     0.05400
C414        C  0.78967487  0.08346455  0.81375435     0.03500
H415        H  0.75954612  0.04030515  0.84703836     0.08600
H416        H  0.79472768  0.09685193  0.79592966     0.07400
N417        N  0.82086106  0.44179771  0.93131399    -0.26900
N418        N  0.83862040  0.43116336  0.94674368    -0.34800
C419        C  0.84371221  0.44327138  0.97443610     0.01400
C420        C  0.82839584  0.46232597  0.97633591     0.07400
C421        C  0.81416396  0.46095826  0.94875646    -0.05700
H422        H  0.85760054  0.43860608  0.99170157     0.08100
H423        H  0.80007761  0.47301583  0.94175286     0.09300
Cu424      Cu  0.85544578  0.40105238  0.92912590     0.44200
Cu425      Cu  0.80667791  0.43005978  0.88711295     0.42000
Cu426      Cu  0.83496878  0.37881233  0.85041350     0.43900
N427        N  0.87018960  0.37204037  0.90543547    -0.34300
N428        N  0.86290139  0.36409843  0.87651643    -0.28600
C429        C  0.87638156  0.34547777  0.86765940    -0.04700
C430        C  0.89298701  0.34141907  0.89225558     0.07500
C431        C  0.88845867  0.35864403  0.91583312     0.01300
H432        H  0.87403874  0.33557082  0.84505890     0.09000
H433        H  0.89792235  0.36156208  0.93867072     0.08100
N434        N  0.80624707  0.39619241  0.82966439    -0.35800
N435        N  0.79584107  0.41489830  0.84309008    -0.28000
C436        C  0.77752156  0.42161492  0.82395589    -0.03200
C437        C  0.77649619  0.40639050  0.79737023     0.05400
C438        C  0.79485037  0.39049049  0.80163647     0.03500
H439        H  0.76571311  0.43628722  0.82924946     0.08600
H440        H  0.79942932  0.37570436  0.78583531     0.07400
C441        C  0.05725786  0.29934193  0.92584610    -0.13000
C442        C  0.05070654  0.28821964  0.89623407     0.09100
C443        C  0.06204198  0.29497775  0.86680272    -0.13000
C444        C  0.07954012  0.31255582  0.86699697    -0.13000
C445        C  0.08589511  0.32384739  0.89657287     0.09100
C446        C  0.07459918  0.31704375  0.92598948    -0.13000
H447        H  0.04889550  0.29446611  0.94894223     0.13100
H448        H  0.05742305  0.28666828  0.84360357     0.13100
H449        H  0.08782600  0.31750588  0.84389695     0.13100
H450        H  0.07931153  0.32518500  0.94924385     0.13100
C451        C  0.05971151  0.17546727  0.92607032    -0.13000
C452        C  0.05201540  0.18587017  0.89645935     0.09100
C453        C  0.06264170  0.17885473  0.86666290    -0.13000
C454        C  0.08039645  0.16159743  0.86641147    -0.13000
C455        C  0.08778491  0.15086684  0.89592125     0.09100
C456        C  0.07737119  0.15805410  0.92578196    -0.13000
H457        H  0.05194808  0.18061318  0.94944095     0.13100
H458        H  0.05716751  0.18661359  0.84344220     0.13100
H459        H  0.08794821  0.15634095  0.84297647     0.13100
H460        H  0.08291263  0.15031208  0.94896460     0.13100
C461        C  0.92352842  0.15538724  0.92446874    -0.13000
C462        C  0.91281945  0.14838788  0.89472151     0.09100
C463        C  0.92002974  0.15931172  0.86523020    -0.13000
C464        C  0.93759549  0.17685133  0.86546691    -0.13000
C465        C  0.94815759  0.18400049  0.89525249     0.09100
C466        C  0.94093194  0.17307609  0.92475223    -0.13000
H467        H  0.91822937  0.14748046  0.94766046     0.13100
H468        H  0.91228183  0.15415956  0.84188289     0.13100
H469        H  0.94279786  0.18490459  0.84230886     0.13100
H470        H  0.94873462  0.17817334  0.94810535     0.13100
C471        C  0.94039052  0.29925650  0.92353682    -0.13000
C472        C  0.94720470  0.28756846  0.89444558     0.09100
C473        C  0.93606953  0.29371706  0.86465369    -0.13000
C474        C  0.91841428  0.31111356  0.86397620    -0.13000
C475        C  0.91162498  0.32287718  0.89303720     0.09100
C476        C  0.92284376  0.31678753  0.92281890    -0.13000
H477        H  0.94868259  0.29493464  0.94686747     0.13100
H478        H  0.94093396  0.28502586  0.84180928     0.13100
H479        H  0.91032312  0.31549323  0.84056237     0.13100
H480        H  0.91793051  0.32534923  0.94570525     0.13100
C481        C  0.82681789  0.49535940  0.02241951    -0.12900
C482        C  0.82760972  0.48018216  0.00153434    -0.14500
C483        C  0.82908163  0.98169163  0.03547169    -0.12900
C484        C  0.82855300  0.99623647  0.01374151    -0.14500
C485        C  0.16818698  0.49281685  0.03590890    -0.12900
C486        C  0.16847012  0.47787391  0.01469260    -0.14500
C487        C  0.16643699  0.97608313  0.02557434    -0.12900
C488        C  0.16608357  0.99070698  0.00391328    -0.14500
C489        C  0.05379329  0.80112267  0.11759709    -0.13000
C490        C  0.04738501  0.78933907  0.14680530     0.09100
C491        C  0.05853057  0.79585092  0.17646234    -0.13000
C492        C  0.07603184  0.81349046  0.17675503    -0.13000
C493        C  0.08257880  0.82512186  0.14745634     0.09100
C494        C  0.07111936  0.81885237  0.11793506    -0.13000
H495        H  0.04546810  0.79659925  0.09436387     0.13100
H496        H  0.05391659  0.78714631  0.19940508     0.13100
H497        H  0.08432270  0.81806575  0.19996848     0.13100
H498        H  0.07579685  0.82729747  0.09486368     0.13100
C499        C  0.93832430  0.79879156  0.11560694    -0.13000
C500        C  0.94483027  0.78730976  0.14499328     0.09100
C501        C  0.93371918  0.79393489  0.17460953    -0.13000
C502        C  0.91643848  0.81168827  0.17482738    -0.13000
C503        C  0.91003683  0.82328638  0.14547417     0.09100
C504        C  0.92115725  0.81665961  0.11586507    -0.13000
H505        H  0.94660736  0.79408967  0.09239788     0.13100
H506        H  0.93838271  0.78542257  0.19766279     0.13100
H507        H  0.90837915  0.81651981  0.19810963     0.13100
H508        H  0.91647447  0.82509315  0.09278936     0.13100
C509        C  0.05953565  0.67788613  0.17407004    -0.13000
C510        C  0.04972403  0.68578302  0.14418366     0.09100
C511        C  0.05807127  0.67605586  0.11444546    -0.13000
C512        C  0.07570528  0.65860038  0.11465666    -0.13000
C513        C  0.08545587  0.65068323  0.14457879     0.09100
C514        C  0.07726239  0.66058545  0.17425636    -0.13000
H515        H  0.05348644  0.68503089  0.19740324     0.13100
H516        H  0.05089391  0.68182241  0.09100759     0.13100
H517        H  0.08181652  0.65146865  0.09136485     0.13100
H518        H  0.08423348  0.65471218  0.19773928     0.13100
C519        C  0.94004139  0.67250114  0.11226991    -0.13000
C520        C  0.94596936  0.68381489  0.14201312     0.09100
C521        C  0.93388820  0.67728832  0.17095450    -0.13000
C522        C  0.91606853  0.66003040  0.17011872    -0.13000
C523        C  0.91000656  0.64878898  0.14035129     0.09100
C524        C  0.92232053  0.65512095  0.11146792    -0.13000
H525        H  0.94907523  0.67709688  0.08955661     0.13100
H526        H  0.93803984  0.68568340  0.19426816     0.13100
H527        H  0.90716582  0.65547315  0.19290861     0.13100
H528        H  0.91807804  0.64696150  0.08806060     0.13100
C529        C  0.73866820  0.56551792  0.27386013    -0.12900
C530        C  0.75310858  0.56543703  0.25192721    -0.14500
C531        C  0.25029728  0.56675395  0.28941649    -0.12900
C532        C  0.23565290  0.56585983  0.26776294    -0.14500
C533        C  0.75707599  0.90707568  0.26315386    -0.12900
C534        C  0.74236508  0.90657913  0.28470779    -0.14500
C535        C  0.55809093  0.79804348  0.36607130    -0.13000
C536        C  0.54860519  0.78935612  0.39581100     0.09100
C537        C  0.55739887  0.79826268  0.42578718    -0.13000
C538        C  0.57525781  0.81549081  0.42600750    -0.13000
C539        C  0.58486949  0.82396048  0.39628694     0.09100
C540        C  0.57614568  0.81507620  0.36632334    -0.13000
H541        H  0.55167312  0.79158344  0.34256734     0.15900
H542        H  0.55053630  0.79188036  0.44912542     0.13100
H543        H  0.58181480  0.82189326  0.44946387     0.13100
H544        H  0.58308523  0.82149124  0.34305071     0.13100
C545        C  0.43499813  0.67771135  0.36511475    -0.13000
C546        C  0.44661366  0.68426848  0.39440514     0.09100
C547        C  0.44039108  0.67277099  0.42391650    -0.13000
C548        C  0.42277433  0.65531605  0.42424706    -0.13000
C549        C  0.41081275  0.64904240  0.39511527     0.09100
C550        C  0.41720141  0.66035360  0.36549548    -0.13000
H551        H  0.43944422  0.68619826  0.34195136     0.13100
H552        H  0.44906559  0.67733373  0.44688586     0.13100
H553        H  0.41824928  0.64711089  0.44754399     0.13100
H554        H  0.40853399  0.65576650  0.34255459     0.13100
C555        C  0.56294352  0.68233880  0.36443393    -0.13000
C556        C  0.55010337  0.68674672  0.39350491     0.09100
C557        C  0.55538682  0.67356784  0.42194720    -0.13000
C558        C  0.57293415  0.65607456  0.42121323    -0.13000
C559        C  0.58570972  0.65152999  0.39209546     0.09100
C560        C  0.58064749  0.66498258  0.36377355    -0.13000
H561        H  0.55932466  0.69232157  0.34216229     0.13100
H562        H  0.54577229  0.67658094  0.44470622     0.13100
H563        H  0.57653049  0.64624630  0.44358410     0.13100
H564        H  0.59004534  0.66188427  0.34089856     0.13100
C565        C  0.25688196  0.90843557  0.27661566    -0.12900
C566        C  0.24203332  0.90786582  0.25522096    -0.14500
C567        C  0.41667996  0.81266002  0.36581411    -0.13000
C568        C  0.40925562  0.82329905  0.39538004     0.09100
C569        C  0.41958446  0.81590638  0.42520052    -0.13000
C570        C  0.43704743  0.79826868  0.42541704    -0.13000
C571        C  0.44465593  0.78782870  0.39577187     0.09100
C572        C  0.43424753  0.79518664  0.36599354    -0.13000
H573        H  0.40923534  0.81809489  0.34240715     0.13100
H574        H  0.41406412  0.82359802  0.44843053     0.13100
H575        H  0.44469798  0.79294363  0.44876651     0.13100
H576        H  0.43971233  0.78748625  0.34272463     0.13100
C577        C  0.74458653  0.40604573  0.74970770    -0.12900
C578        C  0.75923498  0.40639519  0.77134486    -0.14500
C579        C  0.66725913  0.47943905  0.52481399    -0.12900
C580        C  0.66666252  0.49423084  0.50340240    -0.14500
C581        C  0.25756955  0.40647258  0.76476422    -0.12900
C582        C  0.24331464  0.40614029  0.78691516    -0.14500
C583        C  0.32875284  0.49604134  0.51555215    -0.12900
C584        C  0.32965374  0.48107309  0.53678100    -0.14500
C585        C  0.73861250  0.06576299  0.76446583    -0.12900
C586        C  0.75311146  0.06689716  0.78624444    -0.14500
C587        C  0.66683924  0.97905849  0.51145090    -0.12900
C588        C  0.66692781  0.99354869  0.53328240    -0.14500
C589        C  0.43912027  0.29800017  0.61591786    -0.13000
C590        C  0.44636341  0.28727073  0.64552879     0.09100
C591        C  0.43507841  0.29376740  0.67508383    -0.13000
C592        C  0.41696206  0.31068365  0.67505001    -0.13000
C593        C  0.40990632  0.32162779  0.64551132     0.09100
C594        C  0.42113733  0.31508352  0.61593361    -0.13000
H595        H  0.44744280  0.29331261  0.59272964     0.13100
H596        H  0.44021754  0.28576177  0.69829037     0.13100
H597        H  0.40881020  0.31546730  0.69829321     0.13100
H598        H  0.41593932  0.32302285  0.59272822     0.13100
C599        C  0.56201983  0.17869872  0.67621458    -0.13000
C600        C  0.55151709  0.18594391  0.64645741     0.09100
C601        C  0.55890209  0.17531587  0.61684108    -0.13000
C602        C  0.57623444  0.15760512  0.61702367    -0.13000
C603        C  0.58665115  0.15028439  0.64678897     0.09100
C604        C  0.57947222  0.16110118  0.67636289    -0.13000
H605        H  0.55671264  0.18656916  0.69944128     0.13100
H606        H  0.55118150  0.18056057  0.59349866     0.13100
H607        H  0.58157730  0.14980417  0.59378837     0.13100
H608        H  0.58701892  0.15572264  0.69973419     0.13100
C609        C  0.55982221  0.29836922  0.67330760    -0.13000
C610        C  0.55032257  0.28920055  0.64391905     0.09100
C611        C  0.55869506  0.29799721  0.61361345    -0.13000
C612        C  0.57620059  0.31555555  0.61271340    -0.13000
C613        C  0.58584219  0.32453858  0.64208467     0.09100
C614        C  0.57747722  0.31579800  0.67238524    -0.13000
H615        H  0.55368748  0.29202565  0.69704196     0.13100
H616        H  0.55177351  0.29127447  0.59051959     0.13100
H617        H  0.58244681  0.32179870  0.58899450     0.13100
H618        H  0.58439821  0.32258710  0.69542897     0.13100
C619        C  0.23936119  0.06581513  0.77698756    -0.12900
C620        C  0.25396909  0.06655869  0.75535459    -0.14500
C621        C  0.32861824  0.99598562  0.52777439    -0.12900
C622        C  0.32861758  0.98117002  0.50635792    -0.14500
C623        C  0.41802057  0.16141750  0.67582464    -0.13000
C624        C  0.41195509  0.14976482  0.64634432     0.09100
C625        C  0.42416167  0.15575452  0.61727307    -0.13000
C626        C  0.44188363  0.17307328  0.61758077    -0.13000
C627        C  0.44794350  0.18473125  0.64699734     0.09100
C628        C  0.43590506  0.17866388  0.67617486    -0.13000
H629        H  0.40911801  0.15712786  0.69872624     0.13100
H630        H  0.41986204  0.14733639  0.59406955     0.13100
H631        H  0.45084588  0.17733013  0.59468067     0.13100
H632        H  0.44015606  0.18737900  0.69922139     0.13100
loop_ 
_geom_bond_atom_site_label_1 
_geom_bond_atom_site_label_2 
_geom_bond_distance 
_geom_bond_site_symmetry_2 
_ccdc_geom_bond_type 
N1            N2   1.322       .  A
N1            C5   1.345       .  A
N1           Cu9   2.066       .  S
N2            C3   1.345       .  A
N2           Cu8   2.072       .  S
C3            C4   1.380       .  A
C3            H6   1.082       .  S
C4            C5   1.378       .  A
C4          C621   1.435   1_545  S
C5            H7   1.082       .  S
Cu8          N11   2.072       .  S
Cu9          N19   2.066       .  S
Cu10         N12   2.068       .  S
Cu10         N18   2.068       .  S
N11          N12   1.321       .  A
N11          C15   1.343       .  A
N12          C13   1.344       .  A
C13          C14   1.386       .  A
C13          H16   1.081       .  S
C14          C15   1.387       .  A
C14         C624   1.482       .  S
C15          H17   1.081       .  S
N18          N19   1.323       .  A
N18          C22   1.344       .  A
N19          C20   1.344       .  A
C20          C21   1.377       .  A
C20          H23   1.082       .  S
C21          C22   1.378       .  A
C21         C620   1.432       .  S
C22          H24   1.082       .  S
O25         Cu33   2.004       .  S
O25          C35   1.278       .  A
O26         Cu33   2.001       .  S
O26          C36   1.277       .  A
O27         Cu33   2.000       .  S
O27          C37   1.278       .  A
O28         Cu33   2.000       .  S
O28          C38   1.277       .  A
O29         Cu34   2.010       .  S
O29          C38   1.279       .  A
O30         Cu34   2.011       .  S
O30          C37   1.278       .  A
O31         Cu34   2.003       .  S
O31          C36   1.278       .  A
O32         Cu34   2.001       .  S
O32          C35   1.278       .  A
Cu33        Cu34   2.372       .  S
C35         C590   1.477       .  S
C36         C600   1.476       .  S
C37         C627   1.478       .  S
C38         C610   1.479       .  S
N39          N40   1.323       .  A
N39          C43   1.347       .  A
N39         Cu47   2.079       .  S
N40          C41   1.343       .  A
N40         Cu46   2.062       .  S
C41          C42   1.376       .  A
C41          H44   1.082       .  S
C42          C43   1.381       .  A
C42         C585   1.435       .  S
C43          H45   1.082       .  S
Cu46         N49   2.061       .  S
Cu47         N57   2.079       .  S
Cu48         N50   2.065       .  S
Cu48         N56   2.065       .  S
N49          N50   1.320       .  A
N49          C53   1.342       .  A
N50          C51   1.343       .  A
C51          C52   1.385       .  A
C51          H54   1.082       .  S
C52          C53   1.385       .  A
C52         C603   1.477       .  S
C53          H55   1.082       .  S
N56          N57   1.324       .  A
N56          C60   1.344       .  A
N57          C58   1.346       .  A
C58          C59   1.380       .  A
C58          H61   1.082   1_545  S
C59          C60   1.377       .  A
C59         C588   1.435   1_545  S
C60          H62   1.082       .  S
N63          N64   1.323       .  A
N63          C67   1.345       .  A
N63         Cu71   2.073       .  S
N64          C65   1.344       .  A
N64         Cu70   2.066       .  S
C65          C66   1.377       .  A
C65          H68   1.082       .  S
C66          C67   1.379       .  A
C66         C581   1.434       .  S
C67          H69   1.082       .  S
Cu70         N73   2.066       .  S
Cu71         N81   2.073       .  S
Cu72         N74   2.072       .  S
Cu72         N80   2.073       .  S
N73          N74   1.321       .  A
N73          C77   1.343       .  A
N74          C75   1.344       .  A
C75          C76   1.386       .  A
C75          H78   1.082       .  S
C76          C77   1.385       .  A
C76         C593   1.479       .  S
C77          H79   1.082       .  S
N80          N81   1.323       .  A
N80          C84   1.346       .  A
N81          C82   1.345       .  A
C82          C83   1.379       .  A
C82          H85   1.082       .  S
C83          C84   1.380       .  A
C83         C584   1.437       .  S
C84          H86   1.082       .  S
N87          N88   1.323       .  A
N87          C91   1.345       .  A
N87         Cu95   2.070       .  S
N88          C89   1.344       .  A
N88         Cu94   2.067       .  S
C89          C90   1.378       .  A
C89          H92   1.082       .  S
C90          C91   1.379       .  A
C90         C579   1.433       .  S
C91          H93   1.082       .  S
Cu94         N97   2.067       .  S
Cu95        N105   2.070       .  S
Cu96         N98   2.070       .  S
Cu96        N104   2.071       .  S
N97          N98   1.321       .  A
N97         C101   1.344       .  A
N98          C99   1.344       .  A
C99         C100   1.385       .  A
C99         H102   1.082       .  S
C100        C101   1.385       .  A
C100        C613   1.477       .  S
C101        H103   1.082       .  S
N104        N105   1.323       .  A
N104        C108   1.345       .  A
N105        C106   1.345       .  A
C106        C107   1.379       .  A
C106        H109   1.082       .  S
C107        C108   1.379       .  A
C107        C577   1.435       .  S
C108        H110   1.082       .  S
N111        N112   1.323       .  A
N111        C115   1.346       .  A
N111       Cu119   2.076       .  S
N112        C113   1.345       .  A
N112       Cu118   2.069       .  S
C113        C114   1.378       .  A
C113        H116   1.082       .  S
C114        C115   1.380       .  A
C114        C565   1.437       .  S
C115        H117   1.082       .  S
Cu118       N121   2.069       .  S
Cu119       N129   2.076       .  S
Cu120       N122   2.067       .  S
Cu120       N128   2.068       .  S
N121        N122   1.321       .  A
N121        C125   1.343       .  A
N122        C123   1.344       .  A
C123        C124   1.385       .  A
C123        H126   1.081       .  S
C124        C125   1.386       .  A
C124        C568   1.479       .  S
C125        H127   1.081       .  S
N128        N129   1.323       .  A
N128        C132   1.345       .  A
N129        C130   1.345       .  A
C130        C131   1.379       .  A
C130        H133   1.082       .  S
C131        C132   1.378       .  A
C131        C622   1.435       .  S
C132        H134   1.082       .  S
O135       Cu143   2.005       .  S
O135        C145   1.278       .  A
O136       Cu143   2.009       .  S
O136        C146   1.278       .  A
O137       Cu143   2.006       .  S
O137        C147   1.278       .  A
O138       Cu143   2.007       .  S
O138        C148   1.278       .  A
O139       Cu144   2.007       .  S
O139        C148   1.278       .  A
O140       Cu144   2.011       .  S
O140        C147   1.278       .  A
O141       Cu144   2.000       .  S
O141        C146   1.277       .  A
O142       Cu144   2.000       .  S
O142        C145   1.277       .  A
Cu143      Cu144   2.372       .  S
C145        C556   1.475       .  S
C146        C571   1.478       .  S
C147        C546   1.481       .  S
C148        C536   1.480       .  S
N149        N150   1.323       .  A
N149        C153   1.345       .  A
N149       Cu157   2.070       .  S
N150        C151   1.345       .  A
N150       Cu156   2.072       .  S
C151        C152   1.378       .  A
C151        H154   1.082       .  S
C152        C153   1.378       .  A
C152        C534   1.434       .  S
C153        H155   1.082       .  S
Cu156       N159   2.072       .  S
Cu157       N167   2.070       .  S
Cu158       N160   2.068       .  S
Cu158       N166   2.068       .  S
N159        N160   1.321       .  A
N159        C163   1.345       .  A
N160        C161   1.343       .  A
C161        C162   1.384       .  A
C161        H164   1.082       .  S
C162        C163   1.385       .  A
C162        C539   1.477       .  S
C163        H165   1.082       .  S
N166        N167   1.323       .  A
N166        C170   1.345       .  A
N167        C168   1.345       .  A
C168        C169   1.379       .  A
C168        H171   1.082       .  S
C169        C170   1.378       .  A
C169        C587   1.435       .  S
C170        H172   1.082       .  S
N173        N174   1.323       .  A
N173        C177   1.346       .  A
N173       Cu181   2.074       .  S
N174        C175   1.345       .  A
N174       Cu180   2.070       .  S
C175        C176   1.379       .  A
C175        H178   1.082       .  S
C176        C177   1.380       .  A
C176        C583   1.437       .  S
C177        H179   1.082       .  S
Cu180       N183   2.070       .  S
Cu181       N191   2.075       .  S
Cu182       N184   2.077       .  S
Cu182       N190   2.078       .  S
N183        N184   1.321       .  A
N183        C187   1.343       .  A
N184        C185   1.346       .  A
C185        C186   1.388       .  A
C185        H188   1.082       .  S
C186        C187   1.386       .  A
C186        C549   1.483       .  S
C187        H189   1.081       .  S
N190        N191   1.324       .  A
N190        C194   1.346       .  A
N191        C192   1.346       .  A
C192        C193   1.379       .  A
C192        H195   1.082       .  S
C193        C194   1.380       .  A
C193        C531   1.437       .  S
C194        H196   1.082       .  S
N197        N198   1.323       .  A
N197        C201   1.345       .  A
N197       Cu205   2.070       .  S
N198        C199   1.344       .  A
N198       Cu204   2.070       .  S
C199        C200   1.378       .  A
C199        H202   1.082       .  S
C200        C201   1.379       .  A
C200        C529   1.434       .  S
C201        H203   1.082       .  S
Cu204       N207   2.070       .  S
Cu205       N215   2.069       .  S
Cu206       N208   2.065       .  S
Cu206       N214   2.065       .  S
N207        N208   1.321       .  A
N207        C211   1.344       .  A
N208        C209   1.342       .  A
C209        C210   1.385       .  A
C209        H212   1.081       .  S
C210        C211   1.387       .  A
C210        C559   1.480       .  S
C211        H213   1.081       .  S
N214        N215   1.322       .  A
N214        C218   1.345       .  A
N215        C216   1.344       .  A
C216        C217   1.378       .  A
C216        H219   1.082       .  S
C217        C218   1.378       .  A
C217        C580   1.433       .  S
C218        H220   1.082       .  S
O221       Cu229   2.008       .  S
O221        C231   1.278       .  A
O222       Cu229   2.009   1_455  S
O222        C232   1.278       .  A
O223       Cu229   2.000       .  S
O223        C233   1.277       .  A
O224       Cu229   2.001   1_455  S
O224        C234   1.278       .  A
O225       Cu230   2.004   1_455  S
O225        C234   1.278       .  A
O226       Cu230   2.001       .  S
O226        C233   1.278       .  A
O227       Cu230   2.005   1_455  S
O227        C232   1.278       .  A
O228       Cu230   2.008       .  S
O228        C231   1.278       .  A
Cu229      Cu230   2.372       .  S
C231        C520   1.480       .  S
C232        C490   1.479       .  S
C233        C500   1.475       .  S
C234        C510   1.477       .  S
N235        N236   1.322       .  A
N235        C239   1.345       .  A
N235       Cu243   2.073       .  S
N236        C237   1.344       .  A
N236       Cu242   2.065       .  S
C237        C238   1.378       .  A
C237        H240   1.082       .  S
C238        C239   1.380       .  A
C238        C487   1.434       .  S
C239        H241   1.082       .  S
Cu242       N245   2.065       .  S
Cu243       N253   2.073       .  S
Cu244       N246   2.076       .  S
Cu244       N252   2.077       .  S
N245        N246   1.321       .  A
N245        C249   1.342       .  A
N246        C247   1.346       .  A
C247        C248   1.388       .  A
C247        H250   1.082       .  S
C248        C249   1.385       .  A
C248        C493   1.482       .  S
C249        H251   1.081       .  S
N252        N253   1.324       .  A
N252        C256   1.345       .  A
N253        C254   1.345       .  A
C254        C255   1.379       .  A
C254        H257   1.082       .  S
C255        C256   1.379       .  A
C255        C566   1.437       .  S
C256        H258   1.082       .  S
N259        N260   1.324       .  A
N259        C263   1.345       .  A
N259       Cu267   2.075       .  S
N260        C261   1.345       .  A
N260       Cu266   2.068       .  S
C261        C262   1.378       .  A
C261        H264   1.082       .  S
C262        C263   1.379       .  A
C262        C485   1.434       .  S
C263        H265   1.082       .  S
Cu266       N269   2.068       .  S
Cu267       N277   2.075       .  S
Cu268       N270   2.067       .  S
Cu268       N276   2.068       .  S
N269        N270   1.321       .  A
N269        C273   1.344       .  A
N270        C271   1.343       .  A
C271        C272   1.385       .  A
C271        H274   1.081       .  S
C272        C273   1.386       .  A
C272        C513   1.478       .  S
C273        H275   1.082       .  S
N276        N277   1.323       .  A
N276        C280   1.345       .  A
N277        C278   1.346       .  A
C278        C279   1.380       .  A
C278        H281   1.082       .  S
C279        C280   1.379       .  A
C279        C532   1.437       .  S
C280        H282   1.082       .  S
N283        N284   1.323       .  A
N283        C287   1.344       .  A
N283       Cu291   2.070       .  S
N284        C285   1.344       .  A
N284       Cu290   2.067       .  S
C285        C286   1.378       .  A
C285        H288   1.082       .  S
C286        C287   1.378       .  A
C286        C483   1.433       .  S
C287        H289   1.082       .  S
Cu290       N293   2.067       .  S
Cu291       N301   2.070       .  S
Cu292       N294   2.063       .  S
Cu292       N300   2.063       .  S
N293        N294   1.321       .  A
N293        C297   1.343       .  A
N294        C295   1.342       .  A
C295        C296   1.384       .  A
C295        H298   1.082       .  S
C296        C297   1.386       .  A
C296        C503   1.477       .  S
C297        H299   1.082       .  S
N300        N301   1.322       .  A
N300        C304   1.344       .  A
N301        C302   1.345       .  A
C302        C303   1.379       .  A
C302        H305   1.082       .  S
C303        C304   1.378       .  A
C303        C533   1.433       .  S
C304        H306   1.082       .  S
N307        N308   1.323       .  A
N307        C311   1.345       .  A
N307       Cu315   2.071       .  S
N308        C309   1.345       .  A
N308       Cu314   2.069       .  S
C309        C310   1.378       .  A
C309        H312   1.082       .  S
C310        C311   1.379       .  A
C310        C481   1.435       .  S
C311        H313   1.082       .  S
Cu314       N317   2.069       .  S
Cu315       N325   2.071       .  S
Cu316       N318   2.072       .  S
Cu316       N324   2.071       .  S
N317        N318   1.321       .  A
N317        C321   1.344       .  A
N318        C319   1.344       .  A
C319        C320   1.387       .  A
C319        H322   1.081       .  S
C320        C321   1.387       .  A
C320        C523   1.483       .  S
C321        H323   1.081       .  S
N324        N325   1.323       .  A
N324        C328   1.344       .  A
N325        C326   1.345       .  A
C326        C327   1.379       .  A
C326        H329   1.082       .  S
C327        C328   1.378       .  A
C327        C530   1.435       .  S
C328        H330   1.082       .  S
O331       Cu339   2.005       .  S
O331        C341   1.278       .  A
O332       Cu339   2.002   1_455  S
O332        C342   1.277       .  A
O333       Cu339   1.997   1_455  S
O333        C343   1.277       .  A
O334       Cu339   2.000       .  S
O334        C344   1.277       .  A
O335       Cu340   2.007       .  S
O335        C344   1.278       .  A
O336       Cu340   2.006   1_455  S
O336        C343   1.278       .  A
O337       Cu340   2.003   1_455  S
O337        C342   1.278       .  A
O338       Cu340   2.008       .  S
O338        C341   1.278       .  A
Cu339      Cu340   2.372       .  S
C341        C465   1.479       .  S
C342        C442   1.476       .  S
C343        C452   1.476       .  S
C344        C472   1.477       .  S
N345        N346   1.323       .  A
N345        C349   1.345       .  A
N345       Cu353   2.072       .  S
N346        C347   1.344       .  A
N346       Cu352   2.066       .  S
C347        C348   1.378       .  A
C347        H350   1.082   1_556  S
C348        C349   1.379       .  A
C348        C486   1.434   1_556  S
C349        H351   1.082       .  S
Cu352       N355   2.066       .  S
Cu353       N363   2.072       .  S
Cu354       N356   2.065       .  S
Cu354       N362   2.065       .  S
N355        N356   1.321       .  A
N355        C359   1.343       .  A
N356        C357   1.343       .  A
C357        C358   1.385       .  A
C357        H360   1.082       .  S
C358        C359   1.385       .  A
C358        C445   1.477       .  S
C359        H361   1.082       .  S
N362        N363   1.323       .  A
N362        C366   1.344       .  A
N363        C364   1.345       .  A
C364        C365   1.379       .  A
C364        H367   1.082       .  S
C365        C366   1.378       .  A
C365        C582   1.434       .  S
C366        H368   1.082       .  S
N369        N370   1.323       .  A
N369        C373   1.345       .  A
N369       Cu377   2.070       .  S
N370        C371   1.345       .  A
N370       Cu376   2.068       .  S
C371        C372   1.378       .  A
C371        H374   1.082       .  S
C372        C373   1.378       .  A
C372        C488   1.434   1_546  S
C373        H375   1.082   1_545  S
Cu376       N379   2.067       .  S
Cu377       N387   2.070       .  S
Cu378       N380   2.061       .  S
Cu378       N386   2.061       .  S
N379        N380   1.321       .  A
N379        C383   1.343       .  A
N380        C381   1.342       .  A
C381        C382   1.384       .  A
C381        H384   1.082       .  S
C382        C383   1.385       .  A
C382        C455   1.476       .  S
C383        H385   1.082       .  S
N386        N387   1.323       .  A
N386        C390   1.343       .  A
N387        C388   1.345       .  A
C388        C389   1.379       .  A
C388        H391   1.082       .  S
C389        C390   1.376       .  A
C389        C619   1.431       .  S
C390        H392   1.082       .  S
N393        N394   1.322       .  A
N393        C397   1.345       .  A
N393       Cu401   2.068       .  S
N394        C395   1.344       .  A
N394       Cu400   2.065       .  S
C395        C396   1.377       .  A
C395        H398   1.082       .  S
C396        C397   1.379       .  A
C396        C484   1.433   1_546  S
C397        H399   1.082       .  S
Cu400       N403   2.065       .  S
Cu401       N411   2.069       .  S
Cu402       N404   2.077       .  S
Cu402       N410   2.077       .  S
N403        N404   1.321       .  A
N403        C407   1.343       .  A
N404        C405   1.345       .  A
C405        C406   1.387       .  A
C405        H408   1.082       .  S
C406        C407   1.384       .  A
C406        C462   1.480       .  S
C407        H409   1.082       .  S
N410        N411   1.324       .  A
N410        C414   1.346       .  A
N411        C412   1.345       .  A
C412        C413   1.378       .  A
C412        H415   1.082       .  S
C413        C414   1.380       .  A
C413        C586   1.435       .  S
C414        H416   1.082       .  S
N417        N418   1.323       .  A
N417        C421   1.345       .  A
N417       Cu425   2.071       .  S
N418        C419   1.345       .  A
N418       Cu424   2.070       .  S
C419        C420   1.379       .  A
C419        H422   1.082       .  S
C420        C421   1.378       .  A
C420        C482   1.435   1_556  S
C421        H423   1.082       .  S
Cu424       N427   2.070       .  S
Cu425       N435   2.072       .  S
Cu426       N428   2.069       .  S
Cu426       N434   2.069       .  S
N427        N428   1.321       .  A
N427        C431   1.344       .  A
N428        C429   1.344       .  A
C429        C430   1.386       .  A
C429        H432   1.081       .  S
C430        C431   1.386       .  A
C430        C475   1.481       .  S
C431        H433   1.081       .  S
N434        N435   1.323       .  A
N434        C438   1.345       .  A
N435        C436   1.345       .  A
C436        C437   1.379       .  A
C436        H439   1.082       .  S
C437        C438   1.378       .  A
C437        C578   1.435       .  S
C438        H440   1.082       .  S
C441        C442   1.404       .  A
C441        C446   1.395       .  A
C441        H447   1.083       .  S
C442        C443   1.405       .  A
C443        C444   1.396       .  A
C443        H448   1.083       .  S
C444        C445   1.404       .  A
C444        H449   1.082       .  S
C445        C446   1.404       .  A
C446        H450   1.082       .  S
C451        C452   1.405       .  A
C451        C456   1.397       .  A
C451        H457   1.083       .  S
C452        C453   1.405       .  A
C453        C454   1.394       .  A
C453        H458   1.083       .  S
C454        C455   1.404       .  A
C454        H459   1.082       .  S
C455        C456   1.405       .  A
C456        H460   1.082       .  S
C461        C462   1.406       .  A
C461        C466   1.397       .  A
C461        H467   1.082       .  S
C462        C463   1.404       .  A
C463        C464   1.398       .  A
C463        H468   1.082       .  S
C464        C465   1.406       .  A
C464        H469   1.083       .  S
C465        C466   1.405       .  A
C466        H470   1.083       .  S
C471        C472   1.404       .  A
C471        C476   1.397       .  A
C471        H477   1.083       .  S
C472        C473   1.405       .  A
C473        C474   1.396       .  A
C473        H478   1.083       .  S
C474        C475   1.405       .  A
C474        H479   1.082       .  S
C475        C476   1.406       .  A
C476        H480   1.082       .  S
C481        C482   1.205       .  T
C483        C484   1.203       .  T
C485        C486   1.204       .  T
C487        C488   1.204       .  T
C489        C490   1.404       .  A
C489        C494   1.396       .  A
C489        H495   1.083       .  S
C490        C491   1.406       .  A
C491        C492   1.399       .  A
C491        H496   1.083       .  S
C492        C493   1.405       .  A
C492        H497   1.082       .  S
C493        C494   1.405       .  A
C494        H498   1.082       .  S
C499        C500   1.404       .  A
C499        C504   1.395       .  A
C499        H505   1.083       .  S
C500        C501   1.404       .  A
C501        C502   1.395       .  A
C501        H506   1.083       .  S
C502        C503   1.405       .  A
C502        H507   1.082       .  S
C503        C504   1.404       .  A
C504        H508   1.082       .  S
C509        C510   1.404       .  A
C509        C514   1.395       .  A
C509        H515   1.083       .  S
C510        C511   1.405       .  A
C511        C512   1.397       .  A
C511        H516   1.083       .  S
C512        C513   1.405       .  A
C512        H517   1.082       .  S
C513        C514   1.404       .  A
C514        H518   1.082       .  S
C519        C520   1.405       .  A
C519        C524   1.398       .  A
C519        H525   1.083       .  S
C520        C521   1.405       .  A
C521        C522   1.397       .  A
C521        H526   1.083       .  S
C522        C523   1.406       .  A
C522        H527   1.082       .  S
C523        C524   1.406       .  A
C524        H528   1.082       .  S
C529        C530   1.204       .  T
C531        C532   1.206       .  T
C533        C534   1.204       .  T
C535        C536   1.406       .  A
C535        C540   1.397       .  A
C535        H541   1.083       .  S
C536        C537   1.406       .  A
C537        C538   1.397       .  A
C537        H542   1.083       .  S
C538        C539   1.404       .  A
C538        H543   1.083       .  S
C539        C540   1.403       .  A
C540        H544   1.083       .  S
C545        C546   1.406       .  A
C545        C550   1.400       .  A
C545        H551   1.083       .  S
C546        C547   1.405       .  A
C547        C548   1.396       .  A
C547        H552   1.083       .  S
C548        C549   1.405       .  A
C548        H553   1.082       .  S
C549        C550   1.406       .  A
C550        H554   1.082       .  S
C555        C556   1.404       .  A
C555        C560   1.396       .  A
C555        H561   1.083       .  S
C556        C557   1.403       .  A
C557        C558   1.396       .  A
C557        H562   1.083       .  S
C558        C559   1.406       .  A
C558        H563   1.082       .  S
C559        C560   1.405       .  A
C560        H564   1.082       .  S
C565        C566   1.206       .  T
C567        C568   1.404       .  A
C567        C572   1.395       .  A
C567        H573   1.082       .  S
C568        C569   1.405       .  A
C569        C570   1.398       .  A
C569        H574   1.082       .  S
C570        C571   1.405       .  A
C570        H575   1.083       .  S
C571        C572   1.405       .  A
C572        H576   1.083       .  S
C577        C578   1.205       .  T
C579        C580   1.204       .  T
C581        C582   1.204       .  T
C583        C584   1.206       .  T
C585        C586   1.205       .  T
C587        C588   1.204       .  T
C589        C590   1.405       .  A
C589        C594   1.397       .  A
C589        H595   1.083       .  S
C590        C591   1.405       .  A
C591        C592   1.396       .  A
C591        H596   1.083       .  S
C592        C593   1.405       .  A
C592        H597   1.082       .  S
C593        C594   1.405       .  A
C594        H598   1.082       .  S
C599        C600   1.405       .  A
C599        C604   1.396       .  A
C599        H605   1.083       .  S
C600        C601   1.405       .  A
C601        C602   1.396       .  A
C601        H606   1.083       .  S
C602        C603   1.404       .  A
C602        H607   1.082       .  S
C603        C604   1.405       .  A
C604        H608   1.082       .  S
C609        C610   1.405       .  A
C609        C614   1.397       .  A
C609        H615   1.083       .  S
C610        C611   1.406       .  A
C611        C612   1.396       .  A
C611        H616   1.083       .  S
C612        C613   1.404       .  A
C612        H617   1.082       .  S
C613        C614   1.404       .  A
C614        H618   1.083       .  S
C619        C620   1.202       .  T
C621        C622   1.205       .  T
C623        C624   1.406       .  A
C623        C628   1.399       .  A
C623        H629   1.082       .  S
C624        C625   1.405       .  A
C625        C626   1.395       .  A
C625        H630   1.081       .  S
C626        C627   1.404       .  A
C626        H631   1.083       .  S
C627        C628   1.405       .  A
C628        H632   1.083       .  S
