geometry optimzed in LAMMPS
_audit_creation_date              2020-11-30 
_audit_creation_method            'lammps2cif' 
_symmetry_space_group_name_H-M    'P1' 
_symmetry_Int_Tables_number       1 
_symmetry_cell_setting            triclinic 
loop_ 
_symmetry_equiv_pos_as_xyz 
  x,y,z 
_cell_length_a                    34.34915876 
_cell_length_b                    34.77963321615528 
_cell_length_c                    54.57503327510581 
_cell_angle_alpha                 90.01171566800137 
_cell_angle_beta                  90.15040481454561 
_cell_angle_gamma                 90.40721960165328 
loop_ 
_atom_site_label 
_atom_site_type_symbol 
_atom_site_fract_x 
_atom_site_fract_y 
_atom_site_fract_z 
_atom_site_charge 
N1          N  0.71780394  0.36474796  0.78122234    -0.27400
N2          N  0.71466422  0.39597058  0.79481377    -0.35200
C3          C  0.74524226  0.41931670  0.79026077     0.01000
C4          C  0.76883884  0.40148771  0.77315940     0.07000
C5          C  0.75043936  0.36700261  0.76787780    -0.06100
H6          H  0.75007328  0.44693212  0.79891678     0.07700
H7          H  0.75956285  0.34540566  0.75487453     0.08900
Cu8        Cu  0.66878081  0.40372705  0.81887070     0.44200
Cu9        Cu  0.67705960  0.32116322  0.78043697     0.42000
Cu10       Cu  0.59277859  0.32833242  0.81893247     0.43900
N11         N  0.62041024  0.40328087  0.84154265    -0.34700
N12         N  0.59291104  0.37639023  0.84151768    -0.29000
C13         C  0.56603200  0.38532131  0.85844725    -0.05100
C14         C  0.57734422  0.41925202  0.86960895     0.07100
C15         C  0.61179321  0.42989155  0.85850550     0.00900
H16         H  0.54027325  0.36835680  0.86236400     0.08600
H17         H  0.62926670  0.45516687  0.86241536     0.07600
N18         N  0.60119670  0.28364192  0.79435835    -0.36200
N19         N  0.63221978  0.28165988  0.78018512    -0.28400
C20         C  0.62911188  0.25079895  0.76558061    -0.03600
C21         C  0.59444131  0.23214994  0.77078872     0.05000
C22         C  0.57751076  0.25365651  0.78926581     0.03100
H23         H  0.65067507  0.24262122  0.75217949     0.08200
H24         H  0.54968381  0.24848797  0.79794291     0.07000
N25         N  0.22318624  0.13115100  0.57913307    -0.27400
N26         N  0.21820726  0.09782827  0.56789979    -0.35200
C27         C  0.24836798  0.07486735  0.57331079     0.01000
C28         C  0.27366562  0.09473932  0.58869730     0.07000
C29         C  0.25671702  0.13041791  0.59188226    -0.06100
H30         H  0.25110397  0.04556997  0.56693167     0.07700
H31         H  0.26689419  0.15349507  0.60360097     0.08900
Cu32       Cu  0.16913147  0.08451280  0.54722651     0.44200
Cu33       Cu  0.18195482  0.17424574  0.57894534     0.42000
Cu34       Cu  0.09006705  0.15438187  0.54940626     0.43900
N35         N  0.11689730  0.07877438  0.52831519    -0.34700
N36         N  0.08839891  0.10414726  0.52917494    -0.29000
C37         C  0.05963957  0.09286023  0.51401784    -0.05100
C38         C  0.07052774  0.05880007  0.50317168     0.07100
C39         C  0.10691164  0.05058212  0.51258703     0.00900
H40         H  0.03332611  0.10890720  0.51055541     0.08600
H41         H  0.12529428  0.02664229  0.50773237     0.07600
N42         N  0.10062485  0.20336316  0.56989539    -0.36200
N43         N  0.13475943  0.21085971  0.58009550    -0.28400
C44         C  0.13284037  0.24451845  0.59201237    -0.03600
C45         C  0.09563597  0.25901647  0.58930126     0.05000
C46         C  0.07589121  0.23202611  0.57521149     0.03100
H47         H  0.15659657  0.25691011  0.60247170     0.08200
H48         H  0.04588614  0.23310232  0.56919541     0.07000
N49         N  0.28251213  0.63184317  0.79990675    -0.27400
N50         N  0.28768355  0.59745129  0.80958585    -0.35200
C51         C  0.25828409  0.57420380  0.80233076     0.01000
C52         C  0.23380378  0.59503375  0.78709916     0.07000
C53         C  0.25011046  0.63147415  0.78615536    -0.06100
H54         H  0.25614582  0.54391867  0.80667989     0.07700
H55         H  0.24011703  0.65570252  0.77549409     0.08900
Cu56       Cu  0.33714845  0.58392755  0.82975245     0.44200
Cu57       Cu  0.32232605  0.67629578  0.80220804     0.42000
Cu58       Cu  0.41642517  0.65603092  0.82638873     0.43900
N59         N  0.38978863  0.58028766  0.84847789    -0.34700
N60         N  0.41823111  0.60612047  0.84713245    -0.29000
C61         C  0.44734799  0.59557554  0.86214601    -0.05100
C62         C  0.43668706  0.56164494  0.87344569     0.07100
C63         C  0.40016936  0.55263565  0.86439323     0.00900
H64         H  0.47401786  0.61174556  0.86492564     0.08600
H65         H  0.38223030  0.52814568  0.86929599     0.07600
N66         N  0.40436972  0.70560414  0.80679510    -0.36200
N67         N  0.36908070  0.71329870  0.79866255    -0.28400
C68         C  0.36998118  0.74630857  0.78598861    -0.03600
C69         C  0.40786652  0.76037640  0.78596290     0.05000
C70         C  0.42886650  0.73369587  0.79948729     0.03100
H71         H  0.34486466  0.75826445  0.77687439     0.08200
H72         H  0.45980350  0.73389993  0.80318539     0.07000
N73         N  0.77563813  0.84510246  0.57387191    -0.27400
N74         N  0.77973205  0.87866561  0.56284338    -0.35200
C75         C  0.74975374  0.90130740  0.56917701     0.01000
C76         C  0.72587513  0.88094406  0.58514408     0.07000
C77         C  0.74325989  0.84536504  0.58750840    -0.06100
H78         H  0.74665576  0.93090555  0.56346160     0.07700
H79         H  0.73386994  0.82155085  0.59882209     0.08900
Cu80       Cu  0.82790714  0.89218049  0.54156036     0.44200
Cu81       Cu  0.81579479  0.80153426  0.57248910     0.42000
Cu82       Cu  0.90330276  0.81768859  0.53886512     0.43900
N83         N  0.87938636  0.89707108  0.52191689    -0.34700
N84         N  0.90635761  0.87011063  0.52084185    -0.29000
C85         C  0.93526291  0.88215940  0.50609907    -0.05100
C86         C  0.92602522  0.91833336  0.49756007     0.07100
C87         C  0.89048761  0.92696348  0.50787365     0.00900
H88         H  0.96074832  0.86552857  0.50156503     0.08600
H89         H  0.87357358  0.95269516  0.50498667     0.07600
N90         N  0.89393909  0.76924198  0.56019744    -0.36200
N91         N  0.86143549  0.76350781  0.57252043    -0.28400
C92         C  0.86479482  0.73155657  0.58610022    -0.03600
C93         C  0.90142730  0.71616612  0.58225945     0.05000
C94         C  0.91900313  0.74092867  0.56557253     0.03100
H95         H  0.84252090  0.72139868  0.59850957     0.08200
H96         H  0.94838040  0.73962471  0.55858946     0.07000
C97         C  0.00867887  0.49617275  0.68251948    -0.02600
C98         C  0.50239563  0.98794715  0.68524452    -0.02600
N99         N  0.47148616  0.53405410  0.93626123    -0.36700
N100        N  0.51499754  0.49143631  0.97286315    -0.57200
N101        N  0.55383673  0.44931116  0.93385154    -0.36700
N102        N  0.50844870  0.49012928  0.89732693    -0.57200
C103        C  0.45262120  0.54513400  0.95680844     0.26900
C104        C  0.44932319  0.54450913  0.91687023     0.26900
C105        C  0.56620186  0.42921192  0.95356282     0.26900
C106        C  0.56258265  0.42854586  0.91365858     0.26900
C107        C  0.49773289  0.51711563  0.98786307     0.35500
C108        C  0.54161756  0.47260875  0.98654095     0.35500
C109        C  0.48941588  0.51609186  0.88343011     0.35500
C110        C  0.53284682  0.47132733  0.88217117     0.35500
C111        C  0.41832433  0.56340011  0.95035516    -0.22000
C112        C  0.41625843  0.56303031  0.92519976    -0.22000
C113        C  0.58347121  0.39540190  0.94576628    -0.22000
C114        C  0.58117908  0.39498524  0.92060887    -0.22000
C115        C  0.51300682  0.51413302  0.01131154    -0.23000
C116        C  0.54080044  0.48597882  0.01047684    -0.23000
C117        C  0.50131194  0.51332970  0.85923466    -0.23000
C118        C  0.52883093  0.48497307  0.85843914    -0.23000
C119        C  0.46652468  0.54128017  0.98112805    -0.18400
C120        C  0.45935675  0.54015481  0.89188138    -0.18400
C121        C  0.55682454  0.44035543  0.88912460    -0.18400
C122        C  0.56464921  0.44168022  0.97823219    -0.18400
H123        H  0.39712441  0.57615581  0.96246348     0.14500
H124        H  0.39319156  0.57550234  0.91432941     0.14500
H125        H  0.59689573  0.37349749  0.95697451     0.14500
H126        H  0.59251478  0.37273902  0.90879873     0.14500
H127        H  0.50463056  0.53014775  0.02743908     0.12800
H128        H  0.55795979  0.47608453  0.02586100     0.12800
H129        H  0.49084164  0.52957726  0.84367747     0.12800
H130        H  0.54371824  0.47517424  0.84216502     0.12800
H131        H  0.49986118  0.52413009  0.93539974     0.26100
H132        H  0.54442343  0.47757381  0.93403133     0.26100
N133        N  0.04232437  0.03496934  0.43858471    -0.36700
N134        N  0.99851161  0.99074693  0.47464642    -0.57200
N135        N  0.95732147  0.95226107  0.43526991    -0.36700
N136        N  0.00233281  0.99549231  0.39921387    -0.57200
C137        C  0.06293192  0.04300159  0.45912875     0.26900
C138        C  0.06406383  0.04644420  0.41923363     0.26900
C139        C  0.94545657  0.93070733  0.45452968     0.26900
C140        C  0.94801224  0.93269935  0.41463725     0.26900
C141        C  0.01690928  0.01547717  0.48990886     0.35500
C142        C  0.97141770  0.97209525  0.48814302     0.35500
C143        C  0.02106742  0.02244304  0.38577425     0.35500
C144        C  0.97684750  0.97788045  0.38397851     0.35500
C145        C  0.09806766  0.06016760  0.45271782    -0.22000
C146        C  0.09876252  0.06232820  0.42758365    -0.22000
C147        C  0.92773053  0.89732001  0.44599595    -0.22000
C148        C  0.92936114  0.89855792  0.42087032    -0.22000
C149        C  0.00169143  0.01225053  0.51334140    -0.23000
C150        C  0.97286002  0.98473242  0.51221967    -0.23000
C151        C  0.00779909  0.02163243  0.36177840    -0.23000
C152        C  0.97980173  0.99332609  0.36062466    -0.23000
C153        C  0.04946363  0.03831167  0.48344935    -0.18400
C154        C  0.05224256  0.04537590  0.39439987    -0.18400
C155        C  0.95324629  0.94608436  0.39037674    -0.18400
C156        C  0.94796197  0.94146574  0.47948752    -0.18400
H157        H  0.12065438  0.07087878  0.46480844     0.14500
H158        H  0.12196657  0.07483509  0.41676951     0.14500
H159        H  0.91439297  0.87459243  0.45666449     0.14500
H160        H  0.91743168  0.87697291  0.40865396     0.14500
H161        H  0.01097700  0.02742472  0.52967763     0.12800
H162        H  0.95559415  0.97460010  0.52750116     0.12800
H163        H  0.01780084  0.03902149  0.34657247     0.12800
H164        H  0.96394447  0.98469675  0.34434544     0.12800
H165        H  0.01318106  0.02683410  0.43795733     0.26100
H166        H  0.96693046  0.98060360  0.43604984     0.26100
N167        N  0.73056527  0.36459022  0.08348253    -0.27400
N168        N  0.72923833  0.39504067  0.06905608    -0.35200
C169        C  0.75938218  0.41854824  0.07470199     0.01000
C170        C  0.78024888  0.40208334  0.09381434     0.07000
C171        C  0.76110579  0.36781938  0.09868481    -0.06100
H172        H  0.76463056  0.44627132  0.06630764     0.07700
H173        H  0.76817622  0.34697883  0.11268207     0.08900
Cu174      Cu  0.68373601  0.40330181  0.04432308     0.44200
Cu175      Cu  0.68905372  0.32153871  0.08429005     0.42000
Cu176      Cu  0.60487460  0.32973025  0.04699730     0.43900
N177        N  0.63332828  0.40349582  0.02295335    -0.34700
N178        N  0.60540119  0.37705125  0.02391726    -0.29000
C179        C  0.57702996  0.38639608  0.00803257    -0.05100
C180        C  0.58755018  0.42021734  0.99657816     0.07100
C181        C  0.62327535  0.43036656  0.00640320     0.00900
H182        H  0.55050212  0.37000232  0.00524695     0.08600
H183        H  0.64049739  0.45559344  0.00202690     0.07600
N184        N  0.61121909  0.28646630  0.07275199    -0.36200
N185        N  0.64277011  0.28365859  0.08642611    -0.28400
C186        C  0.63876842  0.25381430  0.10179549    -0.03600
C187        C  0.60275337  0.23662607  0.09768711     0.05000
C188        C  0.58610751  0.25828705  0.07903214     0.03100
H189        H  0.66066444  0.24563574  0.11501729     0.08200
H190        H  0.55780683  0.25422421  0.07067799     0.07000
N191        N  0.22804874  0.13589608  0.30118956    -0.27400
N192        N  0.22152471  0.10151492  0.31060858    -0.35200
C193        C  0.24920724  0.07732761  0.30263997     0.01000
C194        C  0.27401481  0.09760740  0.28721469     0.07000
C195        C  0.25962695  0.13464380  0.28685131    -0.06100
H196        H  0.25022362  0.04700151  0.30697418     0.07700
H197        H  0.27079742  0.15894770  0.27663247     0.08900
Cu198      Cu  0.17301647  0.09009110  0.33195527     0.44200
Cu199      Cu  0.19199289  0.18225730  0.30609007     0.42000
Cu200      Cu  0.09942258  0.16826636  0.33410567     0.43900
N201        N  0.12140454  0.08785002  0.35153515    -0.34700
N202        N  0.09496281  0.11541184  0.35229246    -0.29000
C203        C  0.06599985  0.10422792  0.36734281    -0.05100
C204        C  0.07475216  0.06817295  0.37638608     0.07100
C205        C  0.10994533  0.05863111  0.36601296     0.00900
H206        H  0.04081034  0.12136839  0.37174660     0.08600
H207        H  0.12637937  0.03264574  0.36909139     0.07600
N208        N  0.11465198  0.21892643  0.31566601    -0.36200
N209        N  0.14963770  0.22381123  0.30617515    -0.28400
C210        C  0.15120067  0.25748680  0.29425166    -0.03600
C211        C  0.11527235  0.27510281  0.29599053     0.05000
C212        C  0.09281388  0.24977517  0.30992476     0.03100
H213        H  0.17638728  0.26737078  0.28416274     0.08200
H214        H  0.06235465  0.25257988  0.31450808     0.07000
N215        N  0.31968669  0.60799093  0.09862306    -0.27400
N216        N  0.31529105  0.58295502  0.08064133    -0.35200
C217        C  0.28120489  0.56410207  0.08370023     0.01000
C218        C  0.26318904  0.57831785  0.10459332     0.07000
C219        C  0.28874721  0.60600605  0.11352342    -0.06100
H220        H  0.27006345  0.54234775  0.07132180     0.07700
H221        H  0.28518377  0.62386399  0.12956600     0.08900
Cu222      Cu  0.35640603  0.57812095  0.05289783     0.44200
Cu223      Cu  0.36573936  0.64625117  0.10105985     0.42000
Cu224      Cu  0.43257512  0.65498579  0.05117408     0.43900
N225        N  0.40356624  0.57943353  0.02900598    -0.34700
N226        N  0.43057394  0.60683764  0.02818352    -0.29000
C227        C  0.45704819  0.59748865  0.01104656    -0.05100
C228        C  0.44619910  0.56271416  0.00071911     0.07100
C229        C  0.41224515  0.55210819  0.01247140     0.00900
H230        H  0.48254428  0.61452566  0.00662096     0.08600
H231        H  0.39521837  0.52627302  0.00935261     0.07600
N232        N  0.43035325  0.69478126  0.07987185    -0.36200
N233        N  0.40660646  0.68985940  0.09861637    -0.28400
C234        C  0.41115196  0.71905413  0.11444544    -0.03600
C235        C  0.43911019  0.74413174  0.10539331     0.05000
C236        C  0.45063854  0.72776620  0.08329623     0.03100
H237        H  0.39400881  0.72239990  0.13088694     0.08200
H238        H  0.47202715  0.73899305  0.07061690     0.07000
N239        N  0.86466238  0.77131463  0.29608721    -0.27400
N240        N  0.89855691  0.77803221  0.30679144    -0.35200
C241        C  0.92260204  0.74862100  0.30207655     0.01000
C242        C  0.90286213  0.72197295  0.28765749     0.07000
C243        C  0.86615121  0.73745699  0.28431078    -0.06100
H244        H  0.95245080  0.74728230  0.30834447     0.07700
H245        H  0.84266439  0.72594213  0.27323967     0.08900
Cu246      Cu  0.91093029  0.82776913  0.32618872     0.44200
Cu247      Cu  0.81910994  0.80993341  0.29583321     0.42000
Cu248      Cu  0.83715504  0.90193828  0.32429981     0.43900
N249        N  0.91491786  0.87923538  0.34504316    -0.34700
N250        N  0.88803813  0.90625708  0.34432686    -0.29000
C251        C  0.89824434  0.93479665  0.35969352    -0.05100
C252        C  0.93317113  0.92516973  0.37049899     0.07100
C253        C  0.94300424  0.88985979  0.36087987     0.00900
H254        H  0.88085570  0.95994738  0.36338291     0.08600
H255        H  0.96790899  0.87254406  0.36571660     0.07600
N256        N  0.78761274  0.88924524  0.30433025    -0.36200
N257        N  0.78057130  0.85533377  0.29430778    -0.28400
C258        C  0.74672980  0.85680770  0.28195304    -0.03600
C259        C  0.73178069  0.89355612  0.28420973     0.05000
C260        C  0.75855273  0.91327110  0.29860212     0.03100
H261        H  0.73488353  0.83327414  0.27126510     0.08200
H262        H  0.75749820  0.94304760  0.30424984     0.07000
C263        C  0.01469613  0.49724956  0.19251572    -0.02600
C264        C  0.50304365  0.99992673  0.18808324    -0.02600
C265        C  0.60660637  0.98279347  0.21438003    -0.10900
C266        C  0.59938128  0.95439566  0.23202145     0.06200
C267        C  0.56137614  0.94014227  0.23481648    -0.09700
C268        C  0.53103041  0.95474000  0.22060420    -0.11300
C269        C  0.53751917  0.98483743  0.20366898    -0.01100
C270        C  0.57637681  0.99734796  0.20014717    -0.10200
C271        C  0.63190435  0.93887260  0.24673784     0.06300
H272        H  0.55506495  0.91786266  0.24811206     0.08200
H273        H  0.50204270  0.94297935  0.22312481     0.11600
H274        H  0.58419091  0.01771605  0.18603336     0.11900
H275        H  0.63597223  0.99310661  0.21112947     0.08200
C276        C  0.63567005  0.89908532  0.25023313    -0.10900
C277        C  0.66781591  0.88437165  0.26273557    -0.10200
C278        C  0.69668107  0.90918371  0.27212361    -0.01100
C279        C  0.69230396  0.94905986  0.26917292    -0.11300
C280        C  0.66030668  0.96372993  0.25655381    -0.09700
H281        H  0.61432891  0.87927565  0.24268784     0.08200
H282        H  0.67010331  0.85354524  0.26489484     0.11900
H283        H  0.71401463  0.96902004  0.27605164     0.11600
H284        H  0.65786711  0.99456506  0.25432260     0.08200
C285        C  0.97353283  0.64930706  0.26185152    -0.10900
C286        C  0.94821339  0.62291020  0.25043735     0.06200
C287        C  0.90789478  0.62779203  0.25281991    -0.09700
C288        C  0.89317247  0.65941632  0.26549080    -0.11300
C289        C  0.91847772  0.68667613  0.27616668    -0.01100
C290        C  0.95884183  0.68077012  0.27467405    -0.10200
C291        C  0.96398210  0.59144722  0.23519809     0.06300
H292        H  0.88775915  0.60786521  0.24417044     0.08200
H293        H  0.86193317  0.66269927  0.26658562     0.11600
H294        H  0.97923531  0.70105019  0.28266999     0.11900
H295        H  0.00477566  0.64585514  0.26054983     0.08200
C296        C  0.99352427  0.59924630  0.21822470    -0.10900
C297        C  0.00926914  0.56986192  0.20404927    -0.10200
C298        C  0.99694763  0.53127015  0.20706728    -0.01100
C299        C  0.96524497  0.52430113  0.22299336    -0.11300
C300        C  0.94929655  0.55385144  0.23705105    -0.09700
H301        H  0.00412622  0.62837268  0.21565276     0.08200
H302        H  0.03076175  0.57808349  0.19061538     0.11900
H303        H  0.95360666  0.49546418  0.22506564     0.11600
H304        H  0.92599899  0.54716594  0.24971889     0.08200
C305        C  0.47807922  0.84630880  0.11310834    -0.10900
C306        C  0.46871164  0.85404948  0.13770624     0.06200
C307        C  0.45187972  0.82450703  0.15180115    -0.09700
C308        C  0.44330373  0.78873392  0.14141233    -0.11300
C309        C  0.45136183  0.78132800  0.11661111    -0.01100
C310        C  0.46953667  0.81031286  0.10267783    -0.10200
C311        C  0.47583194  0.89272898  0.14874452     0.06300
H312        H  0.44532604  0.82899654  0.17098211     0.08200
H313        H  0.43019881  0.76691910  0.15293037     0.11600
H314        H  0.47610321  0.80565019  0.08352935     0.11900
H315        H  0.49096776  0.86844033  0.10171394     0.08200
C316        C  0.50993495  0.91373553  0.14367535    -0.10900
C317        C  0.51744815  0.94884008  0.15544494    -0.10200
C318        C  0.49076993  0.96461962  0.17230798    -0.01100
C319        C  0.45635438  0.94328458  0.17700275    -0.11300
C320        C  0.44894929  0.90829983  0.16526908    -0.09700
H321        H  0.53161651  0.90230166  0.13135117     0.08200
H322        H  0.54491952  0.96327479  0.15197361     0.11900
H323        H  0.43558675  0.95213819  0.19066223     0.11600
H324        H  0.42221628  0.89304554  0.16951317     0.08200
C325        C  0.17192134  0.58055200  0.14351106    -0.10900
C326        C  0.15367357  0.54557734  0.13743372     0.06200
C327        C  0.17064891  0.52216940  0.11942957    -0.09700
C328        C  0.20588799  0.53297043  0.10838698    -0.11300
C329        C  0.22478803  0.56741550  0.11511740    -0.01100
C330        C  0.20696317  0.59133021  0.13251413    -0.10200
C331        C  0.11813055  0.53304779  0.15079450     0.06300
H332        H  0.15735824  0.49492147  0.11448254     0.08200
H333        H  0.21875952  0.51384973  0.09507977     0.11600
H334        H  0.22003054  0.61847647  0.13779975     0.11900
H335        H  0.15914967  0.59955610  0.15695438     0.08200
C336        C  0.11609993  0.53756376  0.17629188    -0.10900
C337        C  0.08310390  0.52581149  0.18916602    -0.10200
C338        C  0.05029186  0.51018156  0.17698337    -0.01100
C339        C  0.05312367  0.50451595  0.15136429    -0.11300
C340        C  0.08649333  0.51599640  0.13849157    -0.09700
H341        H  0.14044037  0.54962214  0.18641790     0.08200
H342        H  0.08287144  0.52939171  0.20888105     0.11900
H343        H  0.03018752  0.49057534  0.14104222     0.11600
H344        H  0.08747185  0.51170165  0.11884983     0.08200
C345        C  0.04767686  0.44011454  0.25045194    -0.10900
C346        C  0.06231824  0.40646135  0.23993300     0.06200
C347        C  0.06294377  0.40321529  0.21431812    -0.09700
C348        C  0.04794594  0.43243733  0.19955779    -0.11300
C349        C  0.03117669  0.46570466  0.20987660    -0.01100
C350        C  0.03309267  0.46962778  0.23569938    -0.10200
C351        C  0.07697262  0.37470644  0.25553137     0.06300
H352        H  0.07440900  0.37766157  0.20568140     0.08200
H353        H  0.04861234  0.42876301  0.17985594     0.11600
H354        H  0.02403382  0.49550839  0.24489207     0.11900
H355        H  0.04809357  0.44384495  0.27015669     0.08200
C356        C  0.11265707  0.35731606  0.25019285    -0.10900
C357        C  0.12548686  0.32581845  0.26379397    -0.10200
C358        C  0.10272458  0.31054719  0.28294543    -0.01100
C359        C  0.06740664  0.32863498  0.28869602    -0.11300
C360        C  0.05478338  0.36055290  0.27521717    -0.09700
H361        H  0.13051699  0.36792030  0.23528983     0.08200
H362        H  0.15278558  0.31286469  0.25866343     0.11900
H363        H  0.04929643  0.31794487  0.30342519     0.11600
H364        H  0.02708610  0.37345363  0.27967824     0.08200
C365        C  0.35930924  0.03683857  0.26696750    -0.10900
C366        C  0.37141623  0.05636544  0.24573508     0.06200
C367        C  0.35110444  0.08914660  0.23818296    -0.09700
C368        C  0.31950463  0.10239164  0.25168126    -0.11300
C369        C  0.30730173  0.08296255  0.27293048    -0.01100
C370        C  0.32732837  0.04986760  0.28036184    -0.10200
C371        C  0.40508202  0.04261843  0.23141396     0.06300
H372        H  0.36000253  0.10484662  0.22197616     0.08200
H373        H  0.30444748  0.12770346  0.24526948     0.11600
H374        H  0.31866927  0.03439211  0.29669310     0.11900
H375        H  0.37435855  0.01127760  0.27303760     0.08200
C376        C  0.43974993  0.03237676  0.24323188    -0.10900
C377        C  0.47151261  0.01925156  0.22976340    -0.10200
C378        C  0.46898433  0.01462235  0.20405684    -0.01100
C379        C  0.43453900  0.02689804  0.19232715    -0.11300
C380        C  0.40298106  0.04035719  0.20579736    -0.09700
H381        H  0.44254008  0.03527002  0.26292219     0.08200
H382        H  0.49803184  0.01361637  0.23974112     0.11900
H383        H  0.43189679  0.02526274  0.17257227     0.11600
H384        H  0.37665540  0.04844050  0.19618867     0.08200
C385        C  0.53446965  0.15476973  0.11576975    -0.10900
C386        C  0.55553323  0.13707621  0.13468413     0.06200
C387        C  0.59190591  0.15242268  0.14143142    -0.09700
C388        C  0.60702584  0.18468268  0.12951073    -0.11300
C389        C  0.58612056  0.20257251  0.11052007    -0.01100
C390        C  0.54952083  0.18728733  0.10387276    -0.10200
C391        C  0.53982555  0.10292701  0.14768574     0.06300
H392        H  0.60893817  0.13913460  0.15581293     0.08200
H393        H  0.63521727  0.19532655  0.13528669     0.11600
H394        H  0.53245359  0.20018995  0.08941761     0.11900
H395        H  0.50616812  0.14370039  0.11038633     0.08200
C396        C  0.54199143  0.10109158  0.17327733    -0.10900
C397        C  0.52925590  0.06841220  0.18569510    -0.10200
C398        C  0.51516183  0.03574712  0.17294836    -0.01100
C399        C  0.51099280  0.03864756  0.14726082    -0.11300
C400        C  0.52338817  0.07179518  0.13480731    -0.09700
H401        H  0.55355185  0.12506977  0.18374417     0.08200
H402        H  0.53154073  0.06804826  0.20549166     0.11900
H403        H  0.49801318  0.01571513  0.13661221     0.11600
H404        H  0.52084464  0.07278838  0.11503608     0.08200
C405        C  0.93242595  0.43301395  0.16493686    -0.10900
C406        C  0.91443151  0.45819733  0.14833785     0.06200
C407        C  0.92983402  0.49550406  0.14583945    -0.09700
C408        C  0.96225702  0.50719375  0.15962554    -0.11300
C409        C  0.98055318  0.48202458  0.17637221    -0.01100
C410        C  0.96422274  0.44487971  0.17906319    -0.10200
C411        C  0.87916231  0.44557535  0.13436294     0.06300
H412        H  0.91635421  0.51605044  0.13364325     0.08200
H413        H  0.97302438  0.53632905  0.15742869     0.11600
H414        H  0.97490540  0.42468824  0.19243243     0.11900
H415        H  0.92178366  0.40388033  0.16725209     0.08200
C416        C  0.87208530  0.45827873  0.11024221    -0.10900
C417        C  0.83952848  0.44489527  0.09709879    -0.10200
C418        C  0.81373350  0.41819706  0.10770240    -0.01100
C419        C  0.82033783  0.40627819  0.13192628    -0.11300
C420        C  0.85233186  0.41998906  0.14511492    -0.09700
H421        H  0.89218792  0.47776942  0.10127161     0.08200
H422        H  0.83516616  0.45458287  0.07844718     0.11900
H423        H  0.80050145  0.38656251  0.14092589     0.11600
H424        H  0.85581797  0.41058625  0.16388998     0.08200
C425        C  0.56081172  0.95030242  0.62926140    -0.10900
C426        C  0.59499985  0.93750108  0.64060264     0.06200
C427        C  0.59794063  0.93919110  0.66620450    -0.09700
C428        C  0.56793042  0.95479463  0.68008879    -0.11300
C429        C  0.53427920  0.96998908  0.66882682    -0.01100
C430        C  0.53056227  0.96564678  0.64316132    -0.10200
C431        C  0.62759187  0.92241373  0.62582470     0.06300
H432        H  0.62389749  0.92928236  0.67549399     0.08200
H433        H  0.57142427  0.95614758  0.69980096     0.11600
H434        H  0.50435281  0.97346945  0.63349883     0.11900
H435        H  0.55725266  0.94793633  0.60959229     0.08200
C436        C  0.63977478  0.94149173  0.60444532    -0.10900
C437        C  0.67156628  0.92798739  0.59107667    -0.10200
C438        C  0.69153475  0.89497083  0.59874420    -0.01100
C439        C  0.67888690  0.87568135  0.61995595    -0.11300
C440        C  0.64736027  0.88929677  0.63335820    -0.09700
H441        H  0.62519582  0.96730550  0.59835645     0.08200
H442        H  0.68043357  0.94339228  0.57476910     0.11900
H443        H  0.69369283  0.85038696  0.62658902     0.11600
H444        H  0.63835650  0.87382971  0.64963123     0.08200
C445        C  0.97486309  0.64178969  0.60321273    -0.10900
C446        C  0.95460118  0.62362470  0.62228658     0.06200
C447        C  0.91620491  0.63452733  0.62727019    -0.09700
C448        C  0.89862440  0.66377808  0.61384041    -0.11300
C449        C  0.91920635  0.68309615  0.59523440    -0.01100
C450        C  0.95739500  0.67136579  0.58986518    -0.10200
C451        C  0.97314703  0.59344744  0.63722434     0.06300
H452        H  0.89979142  0.62039299  0.64165022     0.08200
H453        H  0.86913519  0.67150912  0.61847587     0.11600
H454        H  0.97411605  0.68521313  0.57557679     0.11900
H455        H  0.00450690  0.63371250  0.59903205     0.08200
C456        C  0.99180179  0.56228133  0.62612910    -0.10900
C457        C  0.00514083  0.53159223  0.64032512    -0.10200
C458        C  0.99923178  0.53105536  0.66595568    -0.01100
C459        C  0.98462797  0.56472263  0.67700026    -0.11300
C460        C  0.97092751  0.59504876  0.66281722    -0.09700
H461        H  0.99486659  0.56104826  0.60639815     0.08200
H462        H  0.01955737  0.50839812  0.63093885     0.11900
H463        H  0.98151148  0.56640200  0.69671514     0.11600
H464        H  0.95782399  0.61948960  0.67182909     0.08200
C465        C  0.46035837  0.89038463  0.70561284    -0.10900
C466        C  0.46580257  0.89082996  0.73103470     0.06200
C467        C  0.48457632  0.92239067  0.74195008    -0.09700
C468        C  0.49637453  0.95383982  0.72772906    -0.11300
C469        C  0.48948906  0.95445950  0.70215708    -0.01100
C470        C  0.47274634  0.92131406  0.69135437    -0.10200
C471        C  0.45108445  0.85851994  0.74598649     0.06300
H472        H  0.48957650  0.92294410  0.76155231     0.08200
H473        H  0.51138419  0.97709723  0.73695067     0.11600
H474        H  0.46838831  0.91989315  0.67170965     0.11900
H475        H  0.44662844  0.86591126  0.69675439     0.08200
C476        C  0.41223125  0.84660817  0.74352676    -0.10900
C477        C  0.39815317  0.81525996  0.75681113    -0.10200
C478        C  0.42275021  0.79476748  0.77272108    -0.01100
C479        C  0.46167976  0.80708153  0.77535291    -0.11300
C480        C  0.47565371  0.83883837  0.76219267    -0.09700
H481        H  0.39273313  0.86160976  0.73122943     0.08200
H482        H  0.36807581  0.80692491  0.75416867     0.11900
H483        H  0.48146459  0.79224488  0.78748628     0.11600
H484        H  0.50581516  0.84756539  0.76426926     0.08200
C485        C  0.14667126  0.53567736  0.76628306    -0.10900
C486        C  0.13700954  0.55375433  0.74405550     0.06200
C487        C  0.15917366  0.58551759  0.73630300    -0.09700
C488        C  0.19030895  0.59897984  0.75042758    -0.11300
C489        C  0.20027428  0.58077590  0.77253909    -0.01100
C490        C  0.17824130  0.54888861  0.78031170    -0.10200
C491        C  0.10418967  0.53944182  0.72879748     0.06300
H492        H  0.15218394  0.60020978  0.71937521     0.08200
H493        H  0.20693557  0.62333952  0.74375637     0.11600
H494        H  0.18520404  0.53438371  0.79730215     0.11900
H495        H  0.13019857  0.51094096  0.77258439     0.08200
C496        C  0.10830673  0.53605713  0.70333135    -0.10900
C497        C  0.07750514  0.52253733  0.68892875    -0.10200
C498        C  0.04177788  0.51108965  0.69953169    -0.01100
C499        C  0.03735280  0.51653645  0.72505893    -0.11300
C500        C  0.06832868  0.52988695  0.73947610    -0.09700
H501        H  0.13558356  0.54344305  0.69454460     0.08200
H502        H  0.08174156  0.52021922  0.66932492     0.11900
H503        H  0.00994368  0.51143037  0.73415331     0.11600
H504        H  0.06397468  0.53354934  0.75898408     0.08200
C505        C  0.34526895  0.02611863  0.61783220    -0.10900
C506        C  0.37335579  0.05143851  0.62754419     0.06200
C507        C  0.36941102  0.09108498  0.62346772    -0.09700
C508        C  0.33728484  0.10518311  0.61054901    -0.11300
C509        C  0.30881768  0.07984870  0.60118774    -0.01100
C510        C  0.31347358  0.04013624  0.60468356    -0.10200
C511        C  0.40583337  0.03631393  0.64254275     0.06300
H512        H  0.39058709  0.11121518  0.63085569     0.08200
H513        H  0.33467256  0.13591760  0.60798714     0.11600
H514        H  0.29201843  0.01984518  0.59786239     0.11900
H515        H  0.34785694  0.99538439  0.62051591     0.08200
C516        C  0.39833222  0.00892032  0.66077277    -0.10900
C517        C  0.42861074  0.99354217  0.67462901    -0.10200
C518        C  0.46777890  0.00414915  0.67015423    -0.01100
C519        C  0.47464105  0.03358048  0.65277111    -0.11300
C520        C  0.44419954  0.04910436  0.63897164    -0.09700
H521        H  0.36875434  0.99976409  0.66458822     0.08200
H522        H  0.42060466  0.97396129  0.68913256     0.11900
H523        H  0.50396717  0.04403617  0.64957696     0.11600
H524        H  0.45072702  0.07067338  0.62524810     0.08200
C525        C  0.09359017  0.35725467  0.61855850    -0.10900
C526        C  0.05424010  0.36091812  0.62504399     0.06200
C527        C  0.02776346  0.33195016  0.61787389    -0.09700
C528        C  0.04083548  0.29923555  0.60545242    -0.11300
C529        C  0.08059820  0.29488366  0.60018016    -0.01100
C530        C  0.10662273  0.32458737  0.60641461    -0.10200
C531        C  0.04175600  0.39418943  0.64010576     0.06300
H532        H  0.99727425  0.33385693  0.62266833     0.08200
H533        H  0.02011179  0.27675117  0.60086682     0.11600
H534        H  0.13726306  0.32253190  0.60206207     0.11900
H535        H  0.11452763  0.37955918  0.62314074     0.08200
C536        C  0.06590127  0.40778956  0.65904120    -0.10900
C537        C  0.05566629  0.43994092  0.67275680    -0.10200
C538        C  0.02110637  0.46024620  0.66770431    -0.01100
C539        C  0.99561188  0.44457959  0.64985243    -0.11300
C540        C  0.00604677  0.41244921  0.63597509    -0.09700
H541        H  0.09271343  0.39316528  0.66354383     0.08200
H542        H  0.07485465  0.44797444  0.68762536     0.11900
H543        H  0.96784639  0.45802262  0.64622019     0.11600
H544        H  0.98647681  0.40237446  0.62173977     0.08200
C545        C  0.57774426  0.15472802  0.72335961    -0.10900
C546        C  0.55337409  0.12871087  0.73585653     0.11000
C547        C  0.54111774  0.13799933  0.75971587    -0.09700
C548        C  0.55364533  0.17209938  0.77094127    -0.11300
C549        C  0.57908629  0.19723578  0.75865906    -0.01100
C550        C  0.59069093  0.18837558  0.73469599    -0.10200
C551        C  0.54131111  0.09199236  0.72400474     0.06300
H552        H  0.52265875  0.11849880  0.76997604     0.08200
H553        H  0.54439375  0.17819034  0.78948073     0.11600
H554        H  0.60959533  0.20762312  0.72455689     0.11900
H555        H  0.58676587  0.14924826  0.70470162     0.08200
C556        C  0.56688382  0.07275363  0.70824903    -0.10900
C557        C  0.55521228  0.03946120  0.69597188    -0.10200
C558        C  0.51793739  0.02312707  0.69982430    -0.01100
C559        C  0.49257533  0.04252095  0.71591232    -0.11300
C560        C  0.50401575  0.07637488  0.72776289    -0.09700
H561        H  0.59603240  0.08366661  0.70508798     0.08200
H562        H  0.57549431  0.02773321  0.68295185     0.11900
H563        H  0.46336007  0.03164626  0.71893674     0.11600
H564        H  0.48321464  0.09078819  0.73938435     0.08200
C565        C  0.84512580  0.46856351  0.74679304    -0.10900
C566        C  0.87263829  0.44231096  0.73787454     0.06200
C567        C  0.86658097  0.40284886  0.74171464    -0.09700
C568        C  0.83313549  0.38977198  0.75359940    -0.11300
C569        C  0.80527692  0.41589793  0.76211865    -0.01100
C570        C  0.81183756  0.45546735  0.75900142    -0.10200
C571        C  0.90686469  0.45586903  0.72383447     0.06300
H572        H  0.88715884  0.38201097  0.73487339     0.08200
H573        H  0.82897533  0.35911749  0.75598585     0.11600
H574        H  0.79073037  0.47617920  0.76532863     0.11900
H575        H  0.84934238  0.49919027  0.74423262     0.08200
C576        C  0.90233716  0.48348010  0.70541080    -0.10900
C577        C  0.93426665  0.49610133  0.69183472    -0.10200
C578        C  0.97221961  0.48257293  0.69691750    -0.01100
C579        C  0.97590640  0.45302998  0.71450534    -0.11300
C580        C  0.94383433  0.44025042  0.72799286    -0.09700
H581        H  0.87378790  0.49467408  0.70107110     0.08200
H582        H  0.92842695  0.51584287  0.67704052     0.11900
H583        H  0.00406394  0.44041861  0.71816869     0.11600
H584        H  0.94802755  0.41840912  0.74186988     0.08200
loop_ 
_geom_bond_atom_site_label_1 
_geom_bond_atom_site_label_2 
_geom_bond_distance 
_geom_bond_site_symmetry_2 
_ccdc_geom_bond_type 
N1            N2   1.320       .  A
N1            C5   1.340       .  A
N1           Cu9   2.056       .  S
N2            C3   1.347       .  A
N2           Cu8   2.073       .  S
C3            C4   1.387       .  A
C3            H6   1.082       .  S
C4            C5   1.382       .  A
C4          C569   1.475       .  S
C5            H7   1.082       .  S
Cu8          N11   2.074       .  S
Cu9          N19   2.057       .  S
Cu10         N12   2.077       .  S
Cu10         N18   2.075       .  S
N11          N12   1.325       .  A
N11          C15   1.344       .  A
N12          C13   1.346       .  A
C13          C14   1.381       .  A
C13          H16   1.082       .  S
C14          C15   1.379       .  A
C14         C121   1.477       .  S
C15          H17   1.082       .  S
N18          N19   1.321       .  A
N18          C22   1.347       .  A
N19          C20   1.340       .  A
C20          C21   1.382       .  A
C20          H23   1.082       .  S
C21          C22   1.387       .  A
C21         C549   1.476       .  S
C22          H24   1.082       .  S
N25          N26   1.321       .  A
N25          C29   1.344       .  A
N25         Cu33   2.069       .  S
N26          C27   1.345       .  A
N26         Cu32   2.076       .  S
C27          C28   1.388       .  A
C27          H30   1.082       .  S
C28          C29   1.386       .  A
C28         C509   1.482       .  S
C29          H31   1.082       .  S
Cu32         N35   2.076       .  S
Cu33         N43   2.070       .  S
Cu34         N36   2.067       .  S
Cu34         N42   2.067       .  S
N35          N36   1.324       .  A
N35          C39   1.345       .  A
N36          C37   1.343       .  A
C37          C38   1.379       .  A
C37          H40   1.082       .  S
C38          C39   1.382       .  A
C38         C153   1.476       .  S
C39          H41   1.082       .  S
N42          N43   1.321       .  A
N42          C46   1.346       .  A
N43          C44   1.341       .  A
C44          C45   1.385       .  A
C44          H47   1.082       .  S
C45          C46   1.386       .  A
C45         C529   1.478       .  S
C46          H48   1.082       .  S
N49          N50   1.321       .  A
N49          C53   1.341       .  A
N49         Cu57   2.060       .  S
N50          C51   1.348       .  A
N50         Cu56   2.079       .  S
C51          C52   1.389       .  A
C51          H54   1.082       .  S
C52          C53   1.383       .  A
C52         C489   1.480       .  S
C53          H55   1.082       .  S
Cu56         N59   2.079       .  S
Cu57         N67   2.060       .  S
Cu58         N60   2.074       .  S
Cu58         N66   2.073       .  S
N59          N60   1.325       .  A
N59          C63   1.345       .  A
N60          C61   1.344       .  A
C61          C62   1.379       .  A
C61          H64   1.082       .  S
C62          C63   1.381       .  A
C62         C120   1.477       .  S
C63          H65   1.082       .  S
N66          N67   1.319       .  A
N66          C70   1.346       .  A
N67          C68   1.341       .  A
C68          C69   1.387       .  A
C68          H71   1.081       .  S
C69          C70   1.390       .  A
C69         C478   1.486       .  S
C70          H72   1.081       .  S
N73          N74   1.320       .  A
N73          C77   1.340       .  A
N73         Cu81   2.058       .  S
N74          C75   1.347       .  A
N74         Cu80   2.075       .  S
C75          C76   1.389       .  A
C75          H78   1.082       .  S
C76          C77   1.384       .  A
C76         C438   1.481       .  S
C77          H79   1.081       .  S
Cu80         N83   2.076       .  S
Cu81         N91   2.058       .  S
Cu82         N84   2.074       .  S
Cu82         N90   2.072       .  S
N83          N84   1.324       .  A
N83          C87   1.345       .  A
N84          C85   1.344       .  A
C85          C86   1.381       .  A
C85          H88   1.082       .  S
C86          C87   1.380       .  A
C86         C156   1.478       .  S
C87          H89   1.082       .  S
N90          N91   1.319       .  A
N90          C94   1.345       .  A
N91          C92   1.341       .  A
C92          C93   1.387       .  A
C92          H95   1.081       .  S
C93          C94   1.390       .  A
C93         C449   1.485       .  S
C94          H96   1.081       .  S
C97         C458   1.549   1_455  S
C97         C498   1.552       .  S
C97         C538   1.551       .  S
C97         C578   1.551   1_455  S
C98         C429   1.551       .  S
C98         C469   1.549       .  S
C98         C518   1.554   1_565  S
C98         C558   1.550   1_565  S
N99         C104   1.353       .  A
N99         C103   1.354       .  A
N99         H131   1.037       .  S
N100        C107   1.353       .  A
N100        C108   1.352       .  A
N101        C106   1.353       .  A
N101        C105   1.352       .  A
N101        H132   1.037       .  S
N102        C109   1.351       .  A
N102        C110   1.351       .  A
C103        C111   1.387       .  A
C103        C119   1.416       .  A
C104        C120   1.416       .  A
C104        C112   1.387       .  A
C105        C113   1.388       .  A
C105        C122   1.416       .  A
C106        C121   1.414       .  A
C106        C114   1.387       .  A
C107        C119   1.415       .  A
C107        C115   1.386   1_556  A
C108        C122   1.415       .  A
C108        C116   1.387   1_556  A
C109        C117   1.387       .  A
C109        C120   1.412       .  A
C110        C118   1.386       .  A
C110        C121   1.412       .  A
C111        C112   1.375       .  A
C111        H123   1.082       .  S
C112        H124   1.082       .  S
C113        C114   1.375       .  A
C113        H125   1.082       .  S
C114        H126   1.082       .  S
C115        C116   1.373       .  A
C115        H127   1.082       .  S
C116        H128   1.082       .  S
C117        C118   1.372       .  A
C117        H129   1.082       .  S
C118        H130   1.082       .  S
C119        C228   1.482   1_556  S
C122        C180   1.477       .  S
N133        C138   1.354       .  A
N133        C137   1.352       .  A
N133        H165   1.039       .  S
N134        C141   1.350   1_665  A
N134        C142   1.351       .  A
N135        C140   1.352       .  A
N135        C139   1.353       .  A
N135        H166   1.038       .  S
N136        C143   1.351   1_565  A
N136        C144   1.350   1_455  A
C137        C145   1.388       .  A
C137        C153   1.416       .  A
C138        C154   1.414       .  A
C138        C146   1.386       .  A
C139        C147   1.387       .  A
C139        C156   1.415       .  A
C140        C155   1.415       .  A
C140        C148   1.388       .  A
C141        C153   1.412       .  A
C141        C149   1.387       .  A
C142        C156   1.412       .  A
C142        C150   1.386       .  A
C143        C151   1.386       .  A
C143        C154   1.411       .  A
C144        C152   1.387       .  A
C144        C155   1.411       .  A
C145        C146   1.374       .  A
C145        H157   1.081       .  S
C146        H158   1.082       .  S
C147        C148   1.373       .  A
C147        H159   1.082       .  S
C148        H160   1.082       .  S
C149        C150   1.374   1_445  A
C149        H161   1.082       .  S
C150        H162   1.082       .  S
C151        C152   1.373   1_445  A
C151        H163   1.082       .  S
C152        H164   1.082       .  S
C154        C204   1.479       .  S
C155        C252   1.473       .  S
N167        N168   1.321       .  A
N167        C171   1.340       .  A
N167       Cu175   2.061       .  S
N168        C169   1.350       .  A
N168       Cu174   2.084       .  S
C169        C170   1.390       .  A
C169        H172   1.082       .  S
C170        C171   1.383       .  A
C170        C418   1.482       .  S
C171        H173   1.082       .  S
Cu174       N177   2.085       .  S
Cu175       N185   2.061       .  S
Cu176       N178   2.073       .  S
Cu176       N184   2.072       .  S
N177        N178   1.325       .  A
N177        C181   1.346       .  A
N178        C179   1.344       .  A
C179        C180   1.379   1_554  A
C179        H182   1.082       .  S
C180        C181   1.381   1_556  A
C181        H183   1.082       .  S
N184        N185   1.318       .  A
N184        C188   1.346       .  A
N185        C186   1.341       .  A
C186        C187   1.388       .  A
C186        H189   1.081       .  S
C187        C188   1.391       .  A
C187        C389   1.487       .  S
C188        H190   1.081       .  S
N191        N192   1.320       .  A
N191        C195   1.340       .  A
N191       Cu199   2.058       .  S
N192        C193   1.347       .  A
N192       Cu198   2.072       .  S
C193        C194   1.388       .  A
C193        H196   1.082       .  S
C194        C195   1.383       .  A
C194        C369   1.479       .  S
C195        H197   1.081       .  S
Cu198       N201   2.073       .  S
Cu199       N209   2.058       .  S
Cu200       N202   2.094       .  S
Cu200       N208   2.093       .  S
N201        N202   1.326       .  A
N201        C205   1.345       .  A
N202        C203   1.347       .  A
C203        C204   1.382       .  A
C203        H206   1.082       .  S
C204        C205   1.379       .  A
C205        H207   1.082       .  S
N208        N209   1.320       .  A
N208        C212   1.350       .  A
N209        C210   1.341       .  A
C210        C211   1.385       .  A
C210        H213   1.081       .  S
C211        C212   1.394       .  A
C211        C358   1.489       .  S
C212        H214   1.081       .  S
N215        N216   1.319       .  A
N215        C219   1.341       .  A
N215       Cu223   2.064       .  S
N216        C217   1.349       .  A
N216       Cu222   2.081       .  S
C217        C218   1.391       .  A
C217        H220   1.081       .  S
C218        C219   1.386       .  A
C218        C329   1.487       .  S
C219        H221   1.081       .  S
Cu222       N225   2.082       .  S
Cu223       N233   2.064       .  S
Cu224       N226   2.093       .  S
Cu224       N232   2.092       .  S
N225        N226   1.326       .  A
N225        C229   1.346       .  A
N226        C227   1.348       .  A
C227        C228   1.383       .  A
C227        H230   1.082       .  S
C228        C229   1.380       .  A
C229        H231   1.082       .  S
N232        N233   1.320       .  A
N232        C236   1.351       .  A
N233        C234   1.341       .  A
C234        C235   1.385       .  A
C234        H237   1.081       .  S
C235        C236   1.393       .  A
C235        C309   1.489       .  S
C236        H238   1.082       .  S
N239        N240   1.321       .  A
N239        C243   1.343       .  A
N239       Cu247   2.069       .  S
N240        C241   1.345       .  A
N240       Cu246   2.069       .  S
C241        C242   1.388       .  A
C241        H244   1.081       .  S
C242        C243   1.386       .  A
C242        C289   1.483       .  S
C243        H245   1.081       .  S
Cu246       N249   2.068       .  S
Cu247       N257   2.069       .  S
Cu248       N250   2.064       .  S
Cu248       N256   2.063       .  S
N249        N250   1.323       .  A
N249        C253   1.343       .  A
N250        C251   1.343       .  A
C251        C252   1.379       .  A
C251        H254   1.082       .  S
C252        C253   1.380       .  A
C253        H255   1.082       .  S
N256        N257   1.321       .  A
N256        C260   1.343       .  A
N257        C258   1.344       .  A
C258        C259   1.386       .  A
C258        H261   1.081       .  S
C259        C260   1.386       .  A
C259        C278   1.480       .  S
C260        H262   1.081       .  S
C263        C298   1.554   1_455  S
C263        C338   1.554       .  S
C263        C349   1.558       .  S
C263        C409   1.555   1_455  S
C264        C269   1.551       .  S
C264        C318   1.555       .  S
C264        C378   1.550   1_565  S
C264        C398   1.550   1_565  S
C265        C266   1.401       .  A
C265        C270   1.393       .  A
C265        H275   1.083       .  S
C266        C267   1.402       .  A
C266        C271   1.479       .  S
C267        C268   1.396       .  A
C267        H272   1.083       .  S
C268        C269   1.413       .  A
C268        H273   1.083       .  S
C269        C270   1.415       .  A
C270        H274   1.080   1_565  S
C271        C276   1.404       .  A
C271        C280   1.404       .  A
C276        C277   1.397       .  A
C276        H281   1.083       .  S
C277        C278   1.405       .  A
C277        H282   1.082       .  S
C278        C279   1.405       .  A
C279        C280   1.395       .  A
C279        H283   1.082       .  S
C280        H284   1.083       .  S
C285        C286   1.405       .  A
C285        C290   1.397       .  A
C285        H295   1.083   1_655  S
C286        C287   1.403       .  A
C286        C291   1.481       .  S
C287        C288   1.398       .  A
C287        H292   1.083       .  S
C288        C289   1.407       .  A
C288        H293   1.082       .  S
C289        C290   1.406       .  A
C290        H294   1.082       .  S
C291        C296   1.401       .  A
C291        C300   1.402       .  A
C296        C297   1.395   1_655  A
C296        H301   1.083   1_655  S
C297        C298   1.414   1_455  A
C297        H302   1.079       .  S
C298        C299   1.415       .  A
C299        C300   1.398       .  A
C299        H303   1.083       .  S
C300        H304   1.083       .  S
C305        C306   1.408       .  A
C305        C310   1.404       .  A
C305        H315   1.083       .  S
C306        C307   1.406       .  A
C306        C311   1.492       .  S
C307        C308   1.396       .  A
C307        H312   1.083       .  S
C308        C309   1.406       .  A
C308        H313   1.082       .  S
C309        C310   1.406       .  A
C310        H314   1.082       .  S
C311        C316   1.404       .  A
C311        C320   1.404       .  A
C316        C317   1.401       .  A
C316        H321   1.083       .  S
C317        C318   1.414       .  A
C317        H322   1.083       .  S
C318        C319   1.415       .  A
C319        C320   1.396       .  A
C319        H323   1.079       .  S
C320        H324   1.083       .  S
C325        C326   1.404       .  A
C325        C330   1.395       .  A
C325        H335   1.083       .  S
C326        C327   1.406       .  A
C326        C331   1.486       .  S
C327        C328   1.402       .  A
C327        H332   1.083       .  S
C328        C329   1.407       .  A
C328        H333   1.082       .  S
C329        C330   1.406       .  A
C330        H334   1.081       .  S
C331        C336   1.402       .  A
C331        C340   1.404       .  A
C336        C337   1.394       .  A
C336        H341   1.083       .  S
C337        C338   1.412       .  A
C337        H342   1.083       .  S
C338        C339   1.416       .  A
C339        C340   1.402       .  A
C339        H343   1.079       .  S
C340        H344   1.083       .  S
C345        C346   1.401       .  A
C345        C350   1.399       .  A
C345        H355   1.083       .  S
C346        C347   1.403       .  A
C346        C351   1.485       .  S
C347        C348   1.397       .  A
C347        H352   1.083       .  S
C348        C349   1.414       .  A
C348        H353   1.083       .  S
C349        C350   1.417       .  A
C350        H354   1.079       .  S
C351        C356   1.402       .  A
C351        C360   1.406       .  A
C356        C357   1.397       .  A
C356        H361   1.083       .  S
C357        C358   1.409       .  A
C357        H362   1.081       .  S
C358        C359   1.407       .  A
C359        C360   1.402       .  A
C359        H363   1.082       .  S
C360        H364   1.083       .  S
C365        C366   1.406       .  A
C365        C370   1.399       .  A
C365        H375   1.083       .  S
C366        C367   1.402       .  A
C366        C371   1.480       .  S
C367        C368   1.394       .  A
C367        H372   1.083       .  S
C368        C369   1.406       .  A
C368        H373   1.082       .  S
C369        C370   1.404       .  A
C370        H374   1.083       .  S
C371        C376   1.401       .  A
C371        C380   1.402       .  A
C376        C377   1.396       .  A
C376        H381   1.083       .  S
C377        C378   1.414       .  A
C377        H382   1.079       .  S
C378        C379   1.413       .  A
C379        C380   1.395       .  A
C379        H383   1.083       .  S
C380        H384   1.083       .  S
C385        C386   1.404       .  A
C385        C390   1.401       .  A
C385        H395   1.083       .  S
C386        C387   1.403       .  A
C386        C391   1.483       .  S
C387        C388   1.395       .  A
C387        H392   1.083       .  S
C388        C389   1.407       .  A
C388        H393   1.080       .  S
C389        C390   1.408       .  A
C390        H394   1.081       .  S
C391        C396   1.400       .  A
C391        C400   1.405       .  A
C396        C397   1.392       .  A
C396        H401   1.083       .  S
C397        C398   1.414       .  A
C397        H402   1.083       .  S
C398        C399   1.413       .  A
C399        C400   1.403       .  A
C399        H403   1.080       .  S
C400        H404   1.083       .  S
C405        C406   1.405       .  A
C405        C410   1.395       .  A
C405        H415   1.082       .  S
C406        C407   1.405       .  A
C406        C411   1.493       .  S
C407        C408   1.400       .  A
C407        H412   1.082       .  S
C408        C409   1.415       .  A
C408        H413   1.083       .  S
C409        C410   1.413       .  A
C410        H414   1.078       .  S
C411        C416   1.410       .  A
C411        C420   1.406       .  A
C416        C417   1.404       .  A
C416        H421   1.082       .  S
C417        C418   1.405       .  A
C417        H422   1.083       .  S
C418        C419   1.404       .  A
C419        C420   1.393       .  A
C419        H423   1.082       .  S
C420        H424   1.082       .  S
C425        C426   1.401       .  A
C425        C430   1.397       .  A
C425        H435   1.083       .  S
C426        C427   1.402       .  A
C426        C431   1.481       .  S
C427        C428   1.394       .  A
C427        H432   1.083       .  S
C428        C429   1.414       .  A
C428        H433   1.083       .  S
C429        C430   1.414       .  A
C430        H434   1.079       .  S
C431        C436   1.406       .  A
C431        C440   1.402       .  A
C436        C437   1.399       .  A
C436        H441   1.083       .  S
C437        C438   1.405       .  A
C437        H442   1.082       .  S
C438        C439   1.406       .  A
C439        C440   1.394       .  A
C439        H443   1.081       .  S
C440        H444   1.083       .  S
C445        C446   1.402       .  A
C445        C450   1.398       .  A
C445        H455   1.083   1_655  S
C446        C447   1.402       .  A
C446        C451   1.476       .  S
C447        C448   1.394       .  A
C447        H452   1.083       .  S
C448        C449   1.407       .  A
C448        H453   1.081       .  S
C449        C450   1.408       .  A
C450        H454   1.081       .  S
C451        C456   1.401       .  A
C451        C460   1.400       .  A
C456        C457   1.398   1_655  A
C456        H461   1.083       .  S
C457        C458   1.414   1_455  A
C457        H462   1.079       .  S
C458        C459   1.413       .  A
C459        C460   1.392       .  A
C459        H463   1.083       .  S
C460        H464   1.083       .  S
C465        C466   1.400       .  A
C465        C470   1.393       .  A
C465        H475   1.083       .  S
C466        C467   1.401       .  A
C466        C471   1.476       .  S
C467        C468   1.400       .  A
C467        H472   1.083       .  S
C468        C469   1.415       .  A
C468        H473   1.080       .  S
C469        C470   1.413       .  A
C470        H474   1.083       .  S
C471        C476   1.401       .  A
C471        C480   1.403       .  A
C476        C477   1.394       .  A
C476        H481   1.083       .  S
C477        C478   1.407       .  A
C477        H482   1.080       .  S
C478        C479   1.408       .  A
C479        C480   1.400       .  A
C479        H483   1.081       .  S
C480        H484   1.083       .  S
C485        C486   1.406       .  A
C485        C490   1.401       .  A
C485        H495   1.083       .  S
C486        C487   1.403       .  A
C486        C491   1.483       .  S
C487        C488   1.395       .  A
C487        H492   1.083       .  S
C488        C489   1.406       .  A
C488        H493   1.082       .  S
C489        C490   1.404       .  A
C490        H494   1.083       .  S
C491        C496   1.402       .  A
C491        C500   1.402       .  A
C496        C497   1.395       .  A
C496        H501   1.083       .  S
C497        C498   1.413       .  A
C497        H502   1.083       .  S
C498        C499   1.415       .  A
C499        C500   1.398       .  A
C499        H503   1.079       .  S
C500        H504   1.083       .  S
C505        C506   1.404       .  A
C505        C510   1.396       .  A
C505        H515   1.083   1_545  S
C506        C507   1.404       .  A
C506        C511   1.482       .  S
C507        C508   1.400       .  A
C507        H512   1.083       .  S
C508        C509   1.407       .  A
C508        H513   1.082       .  S
C509        C510   1.405       .  A
C510        H514   1.082       .  S
C511        C516   1.401       .  A
C511        C520   1.402       .  A
C516        C517   1.394   1_545  A
C516        H521   1.083   1_545  S
C517        C518   1.414   1_565  A
C517        H522   1.079       .  S
C518        C519   1.415       .  A
C519        C520   1.399       .  A
C519        H523   1.083       .  S
C520        H524   1.083       .  S
C525        C526   1.405       .  A
C525        C530   1.392       .  A
C525        H535   1.083       .  S
C526        C527   1.407       .  A
C526        C531   1.486       .  S
C527        C528   1.402       .  A
C527        H532   1.083   1_455  S
C528        C529   1.406       .  A
C528        H533   1.083       .  S
C529        C530   1.403       .  A
C530        H534   1.082       .  S
C531        C536   1.403       .  A
C531        C540   1.403       .  A
C536        C537   1.393       .  A
C536        H541   1.083       .  S
C537        C538   1.412       .  A
C537        H542   1.080       .  S
C538        C539   1.415   1_455  A
C539        C540   1.399   1_655  A
C539        H543   1.083       .  S
C540        H544   1.083   1_455  S
C545        C546   1.406       .  A
C545        C550   1.393       .  A
C545        H555   1.082       .  S
C546        C547   1.408       .  A
C546        C551   1.487       .  S
C547        C548   1.399       .  A
C547        H552   1.082       .  S
C548        C549   1.403       .  A
C548        H553   1.083       .  S
C549        C550   1.403       .  A
C550        H554   1.083       .  S
C551        C556   1.404       .  A
C551        C560   1.403       .  A
C556        C557   1.394       .  A
C556        H561   1.083       .  S
C557        C558   1.413       .  A
C557        H562   1.078       .  S
C558        C559   1.413       .  A
C559        C560   1.397       .  A
C559        H563   1.083       .  S
C560        H564   1.082       .  S
C565        C566   1.406       .  A
C565        C570   1.398       .  A
C565        H575   1.083       .  S
C566        C567   1.403       .  A
C566        C571   1.479       .  S
C567        C568   1.394       .  A
C567        H572   1.083       .  S
C568        C569   1.404       .  A
C568        H573   1.083       .  S
C569        C570   1.403       .  A
C570        H574   1.083       .  S
C571        C576   1.400       .  A
C571        C580   1.403       .  A
C576        C577   1.394       .  A
C576        H581   1.083       .  S
C577        C578   1.416       .  A
C577        H582   1.079       .  S
C578        C579   1.412       .  A
C579        C580   1.397       .  A
C579        H583   1.083   1_655  S
C580        H584   1.083       .  S
