geometry optimzed in LAMMPS
_audit_creation_date              2020-11-30 
_audit_creation_method            'lammps2cif' 
_symmetry_space_group_name_H-M    'P1' 
_symmetry_Int_Tables_number       1 
_symmetry_cell_setting            triclinic 
loop_ 
_symmetry_equiv_pos_as_xyz 
  x,y,z 
_cell_length_a                    46.63470419399203 
_cell_length_b                    46.5531657677251 
_cell_length_c                    45.536237821588045 
_cell_angle_alpha                 90.00231983383354 
_cell_angle_beta                  90.03012521694775 
_cell_angle_gamma                 89.97443775513426 
loop_ 
_atom_site_label 
_atom_site_type_symbol 
_atom_site_fract_x 
_atom_site_fract_y 
_atom_site_fract_z 
_atom_site_charge 
N1          N  0.27982623  0.06228081  0.66373716    -0.26750
N2          N  0.29258037  0.08425838  0.67668374    -0.34610
C3          C  0.27773866  0.09147021  0.70087979     0.01590
C4          C  0.25454192  0.07313225  0.70332942     0.07610
C5          C  0.25653306  0.05489350  0.67940897    -0.05490
H6          H  0.28353854  0.10867340  0.71572229     0.08280
H7          H  0.24204502  0.03760570  0.67373527     0.09480
Cu8        Cu  0.32935444  0.10377811  0.66091606     0.44170
Cu9        Cu  0.29452562  0.04347586  0.62529150     0.41990
Cu10       Cu  0.35386819  0.07967665  0.58986394     0.43880
N11         N  0.36408746  0.12150580  0.63922055    -0.34140
N12         N  0.37222560  0.11350716  0.61263861    -0.28390
C13         C  0.39432621  0.13000669  0.60404601    -0.04490
C14         C  0.40057931  0.14900223  0.62646444     0.07720
C15         C  0.38109723  0.14300849  0.64847278     0.01520
H16         H  0.40528059  0.12802678  0.58319071     0.09170
H17         H  0.37904567  0.15382568  0.66941003     0.08250
N18         N  0.33445770  0.04310296  0.57327487    -0.35590
N19         N  0.31313293  0.02953173  0.58646543    -0.27770
C20         C  0.30608589  0.00619729  0.57060068    -0.03010
C21         C  0.32376174  0.00522884  0.54629934     0.05600
C22         C  0.34145587  0.02887752  0.54859852     0.03690
H23         H  0.28930719  0.99114174  0.57627565     0.08800
H24         H  0.35832911  0.03514070  0.53360300     0.07630
O25         O  0.43245763  0.18078470  0.65095408    -0.72410
O26         O  0.49438503  0.24087990  0.65044420    -0.73390
O27         O  0.43292768  0.24134981  0.65067285    -0.62010
O28         O  0.49362974  0.18035531  0.65095343    -0.70420
O29         O  0.49321486  0.17967520  0.60216625    -0.69970
O30         O  0.43319003  0.24151933  0.60187868    -0.61220
O31         O  0.49368926  0.24085320  0.60165435    -0.73730
O32         O  0.43274048  0.18033973  0.60216584    -0.72510
Cu33       Cu  0.46334904  0.21088166  0.65248598     1.04560
Cu34       Cu  0.46320298  0.21060233  0.60026895     1.04330
C35         C  0.42296607  0.17107494  0.62657111     0.93790
C36         C  0.50381372  0.25019853  0.62588340     0.92930
C37         C  0.42345800  0.25095500  0.62625453     0.85080
C38         C  0.50291292  0.17038342  0.62662973     0.91350
N39         N  0.64516194  0.06124662  0.66681451    -0.26750
N40         N  0.63217298  0.08337438  0.67925849    -0.34610
C41         C  0.64653377  0.09082369  0.70369724     0.01590
C42         C  0.66961695  0.07244631  0.70689386     0.07610
C43         C  0.66808286  0.05392657  0.68315512    -0.05490
H44         H  0.64053819  0.10827538  0.71815112     0.08280
H45         H  0.68270114  0.03658776  0.67799991     0.09480
Cu46       Cu  0.59568774  0.10276930  0.66256316     0.44170
Cu47       Cu  0.63129087  0.04237202  0.62796589     0.41990
Cu48       Cu  0.57005636  0.07631216  0.59292641     0.43880
N49         N  0.56108287  0.12028385  0.64040809    -0.34140
N50         N  0.55249595  0.11141507  0.61426332    -0.28390
C51         C  0.53064764  0.12805327  0.60516878    -0.04490
C52         C  0.52501838  0.14802272  0.62685949     0.07720
C53         C  0.54459658  0.14246249  0.64892005     0.01520
H54         H  0.51939012  0.12545668  0.58454582     0.09170
H55         H  0.54703191  0.15398992  0.66941676     0.08250
N56         N  0.59001306  0.03978423  0.57693798    -0.35590
N57         N  0.61256716  0.02758312  0.58939852    -0.27770
C58         C  0.62036872  0.00458395  0.57337712    -0.03010
C59         C  0.60168984  0.00214239  0.54988890     0.05600
C60         C  0.58272103  0.02476802  0.55284772     0.03690
H61         H  0.63816385  0.99054382  0.57856102     0.08800
H62         H  0.56504269  0.03006116  0.53841961     0.07630
N63         N  0.28369890  0.36214188  0.66860592    -0.26750
N64         N  0.29252120  0.33657503  0.67734885    -0.34610
C65         C  0.27660963  0.32815951  0.70037770     0.01590
C66         C  0.25712785  0.34973139  0.70704998     0.07610
C67         C  0.26244206  0.37100197  0.68637507    -0.05490
H68         H  0.27907650  0.30770626  0.71134603     0.08280
H69         H  0.25178330  0.39154324  0.68438095     0.09480
Cu70       Cu  0.32708490  0.31511172  0.65904298     0.44170
Cu71       Cu  0.29959333  0.38276405  0.63164414     0.41990
Cu72       Cu  0.35753050  0.34617484  0.59365196     0.43880
N73         N  0.36332953  0.29910399  0.63844075    -0.34140
N74         N  0.37374331  0.30976342  0.61374264    -0.28390
C75         C  0.39655909  0.29408581  0.60541728    -0.04490
C76         C  0.40098965  0.27294755  0.62621401     0.07720
C77         C  0.37965914  0.27677012  0.64690163     0.01520
H78         H  0.40933477  0.29819045  0.58603009     0.09170
H79         H  0.37598095  0.26399635  0.66639466     0.08250
N80         N  0.33831569  0.38344951  0.57860481    -0.35590
N81         N  0.31694837  0.39659461  0.59213628    -0.27770
C82         C  0.30882430  0.41942520  0.57605794    -0.03010
C83         C  0.32608395  0.42088668  0.55133253     0.05600
C84         C  0.34459004  0.39775233  0.55380462     0.03690
H85         H  0.29140900  0.43372243  0.58181597     0.08800
H86         H  0.36145054  0.39171823  0.53868736     0.07630
N87         N  0.64335310  0.36156507  0.66566171    -0.26750
N88         N  0.63682137  0.33489249  0.67285385    -0.34610
C89         C  0.65389649  0.32638506  0.69496560     0.01590
C90         C  0.67159058  0.34908120  0.70298855     0.07610
C91         C  0.66400411  0.37108876  0.68382624    -0.05490
H92         H  0.65336356  0.30506970  0.70434482     0.08280
H93         H  0.67261930  0.39262344  0.68311032     0.09480
Cu94       Cu  0.60287430  0.31230962  0.65474675     0.44170
Cu95       Cu  0.62611116  0.38255658  0.62944468     0.41990
Cu96       Cu  0.57095561  0.34331223  0.59027389     0.43880
N97         N  0.56555317  0.29682816  0.63577587    -0.34140
N98         N  0.55456472  0.30754627  0.61135635    -0.28390
C99         C  0.53100593  0.29252379  0.60408416    -0.04490
C100        C  0.52666633  0.27176948  0.62528939     0.07720
C101        C  0.54885634  0.27510931  0.64513298     0.01520
H102        H  0.51772371  0.29676806  0.58507379     0.09170
H103        H  0.55289495  0.26237602  0.66458407     0.08250
N104        N  0.58946850  0.38077825  0.57484917    -0.35590
N105        N  0.60967036  0.39516458  0.58898809    -0.27770
C106        C  0.61731376  0.41810440  0.57277824    -0.03010
C107        C  0.60095353  0.41813213  0.54745208     0.05600
C108        C  0.58348608  0.39429950  0.54949347     0.03690
H109        H  0.63339298  0.43369791  0.57905425     0.08800
H110        H  0.56761232  0.38728129  0.53370231     0.07630
N111        N  0.27980459  0.85867436  0.33806685    -0.26750
N112        N  0.29280600  0.83680455  0.32521357    -0.34610
C113        C  0.27872318  0.83013490  0.30037658     0.01590
C114        C  0.25589956  0.84892774  0.29714438     0.07610
C115        C  0.25734976  0.86677609  0.32147763    -0.05490
H116        H  0.28463981  0.81275097  0.28581090     0.08280
H117        H  0.24324772  0.88452079  0.32668034     0.09480
Cu118      Cu  0.32960809  0.81751282  0.34134325     0.44170
Cu119      Cu  0.29316227  0.87650845  0.37755052     0.41990
Cu120      Cu  0.36090906  0.85002039  0.40567398     0.43880
N121        N  0.36571968  0.80159499  0.36225254    -0.34140
N122        N  0.37649764  0.81279376  0.38654886    -0.28390
C123        C  0.39863398  0.79651090  0.39563229    -0.04490
C124        C  0.40221952  0.77438953  0.37573892     0.07720
C125        C  0.38113917  0.77831124  0.35479202     0.01520
H126        H  0.41149054  0.80080471  0.41493643     0.09170
H127        H  0.37696031  0.76492883  0.33582725     0.08250
N128        N  0.33912733  0.88477408  0.42322018    -0.35590
N129        N  0.31339169  0.89297432  0.41449630    -0.27770
C130        C  0.30408870  0.91409722  0.43223423    -0.03010
C131        C  0.32527080  0.92007028  0.45281983     0.05600
C132        C  0.34725549  0.90106584  0.44609464     0.03690
H133        H  0.28325562  0.92413561  0.43031983     0.08800
H134        H  0.36778464  0.89909512  0.45696529     0.07630
O135        O  0.49464722  0.74128579  0.35277233    -0.72410
O136        O  0.43277084  0.68108976  0.35216500    -0.73390
O137        O  0.43341203  0.74168523  0.35201867    -0.62010
O138        O  0.49400219  0.68064184  0.35256708    -0.70420
O139        O  0.49340645  0.68017501  0.40134129    -0.69970
O140        O  0.43360379  0.74248435  0.40080291    -0.61220
O141        O  0.43278534  0.68108896  0.40094985    -0.73730
O142        O  0.49416423  0.74126201  0.40155112    -0.72510
Cu143      Cu  0.46370243  0.71117957  0.35066309     1.04560
Cu144      Cu  0.46343400  0.71124715  0.40286437     1.04330
C145        C  0.50421355  0.75060628  0.37730247     0.93790
C146        C  0.42313391  0.67159516  0.37656648     0.92930
C147        C  0.42409312  0.75179623  0.37625837     0.85080
C148        C  0.50331743  0.67086176  0.37697780     0.91350
N149        N  0.64422671  0.86196411  0.33693279    -0.26750
N150        N  0.63295843  0.83857949  0.32519380    -0.34610
C151        C  0.64866225  0.83070467  0.30181042     0.01590
C152        C  0.67096431  0.85000939  0.29871133     0.07610
C153        C  0.66756647  0.86952657  0.32137754    -0.05490
H154        H  0.64423499  0.81221557  0.28813335     0.08280
H155        H  0.68092204  0.88797135  0.32606248     0.09480
Cu156      Cu  0.59731313  0.81793007  0.34195844     0.44170
Cu157      Cu  0.62749002  0.88176994  0.37400143     0.41990
Cu158      Cu  0.57840189  0.83746510  0.41623378     0.43880
N159        N  0.56389400  0.79927570  0.36484816    -0.34140
N160        N  0.55776571  0.80543675  0.39249054    -0.28390
C161        C  0.53555377  0.78908411  0.40116352    -0.04490
C162        C  0.52722234  0.77208430  0.37774786     0.07720
C163        C  0.54559330  0.77910768  0.35508112     0.01520
H164        H  0.52590826  0.78984763  0.42276560     0.09170
H165        H  0.54593808  0.76995550  0.33323015     0.08250
N166        N  0.59531305  0.87610143  0.43109847    -0.35590
N167        N  0.61093209  0.89338778  0.41459962    -0.27770
C168        C  0.61547210  0.91803998  0.42924046    -0.03010
C169        C  0.60275315  0.91609222  0.45676232     0.05600
C170        C  0.59031723  0.88896037  0.45703306     0.03690
H171        H  0.62705394  0.93611487  0.42023376     0.08800
H172        H  0.57843538  0.87911037  0.47474952     0.07630
N173        N  0.27957704  0.56264863  0.34018373    -0.26750
N174        N  0.29246850  0.58447207  0.32712294    -0.34610
C175        C  0.27784002  0.59142293  0.30270878     0.01590
C176        C  0.25466831  0.57304703  0.30018491     0.07610
C177        C  0.25640977  0.55509718  0.32435432    -0.05490
H178        H  0.28366151  0.60860785  0.28787017     0.08280
H179        H  0.24210856  0.53760513  0.32984097     0.09480
Cu180      Cu  0.32933085  0.60403040  0.34275404     0.44170
Cu181      Cu  0.29417727  0.54405084  0.37876617     0.41990
Cu182      Cu  0.35486221  0.57941480  0.41304831     0.43880
N183        N  0.36430018  0.62182149  0.36409903    -0.34140
N184        N  0.37279998  0.61362754  0.39050394    -0.28390
C185        C  0.39488281  0.63020821  0.39902821    -0.04490
C186        C  0.40077986  0.64945115  0.37672722     0.07720
C187        C  0.38108642  0.64351177  0.35486242     0.01520
H188        H  0.40609617  0.62809330  0.41973319     0.09170
H189        H  0.37874470  0.65448695  0.33404885     0.08250
N190        N  0.33528872  0.54300237  0.42983802    -0.35590
N191        N  0.31326236  0.52998307  0.41729877    -0.27770
C192        C  0.30595423  0.50697048  0.43350229    -0.03010
C193        C  0.32426231  0.50546048  0.45737922     0.05600
C194        C  0.34258726  0.52862410  0.45432191     0.03690
H195        H  0.28846768  0.49252822  0.42839020     0.08800
H196        H  0.36007854  0.53450627  0.46875072     0.07630
N197        N  0.60812417  0.52538454  0.41009047    -0.26750
N198        N  0.59375202  0.54308019  0.42727832    -0.34610
C199        C  0.58963337  0.53042982  0.45345497     0.01590
C200        C  0.60095349  0.50274919  0.45269860     0.07610
C201        C  0.61232338  0.50048878  0.42447278    -0.05490
H202        H  0.57928262  0.54098988  0.47165386     0.08280
H203        H  0.62265605  0.48210768  0.41468705     0.09480
Cu204      Cu  0.57665942  0.58191300  0.41317950     0.44170
Cu205      Cu  0.62434722  0.53738208  0.36929548     0.41990
Cu206      Cu  0.59591515  0.60359011  0.34001414     0.43880
N207        N  0.55600761  0.61470082  0.39057036    -0.34140
N208        N  0.56241059  0.62178358  0.36323579    -0.28390
C209        C  0.54441109  0.64251389  0.35413143    -0.04490
C210        C  0.52595864  0.64896076  0.37693247     0.07720
C211        C  0.53389937  0.63099374  0.39972696     0.01520
H212        H  0.54506047  0.65249395  0.33267076     0.09170
H213        H  0.52414148  0.62961787  0.42123742     0.08250
N214        N  0.63111246  0.58268839  0.32248661    -0.35590
N215        N  0.64159323  0.55837216  0.33297485    -0.27770
C216        C  0.66459269  0.55076684  0.31687118    -0.03010
C217        C  0.66863600  0.57124366  0.29516557     0.05600
C218        C  0.64703515  0.59116672  0.29948089     0.03690
H219        H  0.67726745  0.53162479  0.32051009     0.08800
H220        H  0.64318860  0.61047574  0.28684742     0.07630
O221        O  0.93272882  0.74185688  0.15030352    -0.72410
O222        O  0.99344686  0.68103164  0.15128890    -0.73390
O223        O  0.99389461  0.74162391  0.15044655    -0.62010
O224        O  0.93235583  0.68127529  0.15092775    -0.70420
O225        O  0.93275851  0.68063991  0.10214117    -0.69970
O226        O  0.99380824  0.74116474  0.10166066    -0.61220
O227        O  0.99313850  0.67979045  0.10250896    -0.73730
O228        O  0.93321360  0.74187247  0.10151707    -0.72510
Cu229      Cu  0.96311019  0.71148665  0.15244824     1.04560
Cu230      Cu  0.96325218  0.71087268  0.10023722     1.04330
C231        C  0.92339604  0.75142347  0.12582226     0.93790
C232        C  0.00264651  0.67065646  0.12711586     0.92930
C233        C  0.00349303  0.75088158  0.12594034     0.85080
C234        C  0.92298322  0.67141464  0.12656423     0.91350
N235        N  0.14683544  0.85961091  0.16292078    -0.26750
N236        N  0.13370106  0.83799733  0.17608502    -0.34610
C237        C  0.14823905  0.83100658  0.20054919     0.01590
C238        C  0.17164697  0.84908952  0.20291625     0.07610
C239        C  0.17012926  0.86693483  0.17866519    -0.05490
H240        H  0.14223055  0.81397922  0.21549954     0.08280
H241        H  0.18467171  0.88419234  0.17306859     0.09480
Cu242      Cu  0.09684676  0.81864231  0.16019783     0.44170
Cu243      Cu  0.13228232  0.87820608  0.12434315     0.41990
Cu244      Cu  0.07279079  0.84201390  0.08872311     0.43880
N245        N  0.06228565  0.80064091  0.13836246    -0.34140
N246        N  0.05433548  0.80831227  0.11161246    -0.28390
C247        C  0.03231826  0.79166964  0.10301976    -0.04490
C248        C  0.02592224  0.77292943  0.12561924     0.07720
C249        C  0.04523555  0.77922635  0.14772157     0.01520
H250        H  0.02148819  0.79341420  0.08206608     0.09170
H251        H  0.04712710  0.76868757  0.16881703     0.08250
N252        N  0.09223429  0.87866046  0.07233900    -0.35590
N253        N  0.11356767  0.89216002  0.08560029    -0.27770
C254        C  0.12056212  0.91559418  0.06990945    -0.03010
C255        C  0.10285753  0.91679006  0.04558348     0.05600
C256        C  0.08518051  0.89306587  0.04778433     0.03690
H257        H  0.13736149  0.93059262  0.07571822     0.08800
H258        H  0.06819820  0.88692708  0.03283853     0.07630
N259        N  0.14675804  0.56376554  0.16480321    -0.26750
N260        N  0.13330556  0.58505363  0.17818401    -0.34610
C261        C  0.14723518  0.59144730  0.20318027     0.01590
C262        C  0.17045779  0.57310329  0.20592888     0.07610
C263        C  0.16941584  0.55580084  0.18117372    -0.05490
H264        H  0.14095011  0.60834001  0.21818445     0.08280
H265        H  0.18392821  0.53851555  0.17555132     0.09480
Cu266      Cu  0.09626552  0.60409449  0.16244814     0.44170
Cu267      Cu  0.13355684  0.54635391  0.12505710     0.41990
Cu268      Cu  0.06525710  0.57210032  0.09771851     0.43880
N269        N  0.06037566  0.62026107  0.14145194    -0.34140
N270        N  0.04970496  0.60925960  0.11701392    -0.28390
C271        C  0.02780445  0.62578717  0.10781438    -0.04490
C272        C  0.02428873  0.64787259  0.12776155     0.07720
C273        C  0.04513453  0.64366620  0.14887958     0.01520
H274        H  0.01508932  0.62171713  0.08836109     0.09170
H275        H  0.04931099  0.65695462  0.16791433     0.08250
N276        N  0.08719691  0.53757286  0.07990389    -0.35590
N277        N  0.11313566  0.52969913  0.08830081    -0.27770
C278        C  0.12245488  0.50863700  0.07049768    -0.03010
C279        C  0.10107900  0.50234103  0.05021997     0.05600
C280        C  0.07896414  0.52111718  0.05718774     0.03690
H281        H  0.14341884  0.49883813  0.07218152     0.08800
H282        H  0.05826286  0.52279947  0.04661387     0.07630
N283        N  0.78281514  0.86194230  0.16764127    -0.26750
N284        N  0.79487022  0.83896366  0.17941025    -0.34610
C285        C  0.77999813  0.83125910  0.20343638     0.01590
C286        C  0.75751669  0.85036077  0.20703380     0.07610
C287        C  0.75998498  0.86952984  0.18392143    -0.05490
H288        H  0.78501447  0.81291674  0.21709832     0.08280
H289        H  0.74621871  0.88768796  0.17928623     0.09480
Cu290      Cu  0.83065866  0.81886252  0.16199503     0.44170
Cu291      Cu  0.79755123  0.88138243  0.12956705     0.41990
Cu292      Cu  0.85437156  0.84380624  0.09082709     0.43880
N293        N  0.86477609  0.80108263  0.13925071    -0.34140
N294        N  0.87266221  0.80932594  0.11266591    -0.28390
C295        C  0.89459565  0.79276923  0.10360899    -0.04490
C296        C  0.90098712  0.77350476  0.12575574     0.07720
C297        C  0.88176903  0.77939637  0.14803728     0.01520
H298        H  0.90542281  0.79498662  0.08271294     0.09170
H299        H  0.87997421  0.76846532  0.16893117     0.08250
N300        N  0.83527130  0.88120035  0.07576025    -0.35590
N301        N  0.81507051  0.89527794  0.09021066    -0.27770
C302        C  0.80800915  0.91903167  0.07503014    -0.03010
C303        C  0.82444657  0.91979126  0.04979893     0.05600
C304        C  0.84146777  0.89551820  0.05091922     0.03690
H305        H  0.79195376  0.93448450  0.08174469     0.08800
H306        H  0.85739157  0.88890761  0.03500570     0.07630
N307        N  0.81324039  0.52997135  0.08562975    -0.26750
N308        N  0.83558891  0.54267180  0.07339085    -0.34610
C309        C  0.84305763  0.52814940  0.04906095     0.01590
C310        C  0.82447923  0.50522111  0.04574825     0.07610
C311        C  0.80585423  0.50703120  0.06934468    -0.05490
H312        H  0.86085908  0.53375536  0.03494025     0.08280
H313        H  0.78814668  0.49280340  0.07424668     0.09480
Cu314      Cu  0.85528185  0.57886209  0.09039663     0.44170
Cu315      Cu  0.79409065  0.54426364  0.12406228     0.41990
Cu316      Cu  0.82995744  0.60327355  0.16101588     0.43880
N317        N  0.87306585  0.61308798  0.11294943    -0.34140
N318        N  0.86465913  0.62123118  0.13939676    -0.28390
C319        C  0.88130968  0.64307511  0.14850330    -0.04490
C320        C  0.90080394  0.64914082  0.12652087     0.07720
C321        C  0.89495299  0.62982829  0.10428282     0.01520
H322        H  0.87901084  0.65406188  0.16931985     0.09170
H323        H  0.90605079  0.62778522  0.08351207     0.08250
N324        N  0.79299304  0.58381899  0.17651608    -0.35590
N325        N  0.77975263  0.56248054  0.16296791    -0.27770
C326        C  0.75638020  0.55509291  0.17852624    -0.03010
C327        C  0.75487758  0.57260509  0.20304171     0.05600
C328        C  0.77841775  0.59056246  0.20103042     0.03690
H329        H  0.74168786  0.53807715  0.17255379     0.08800
H330        H  0.78442027  0.60743340  0.21618362     0.07630
O331        O  0.99374366  0.24102776  0.90014573    -0.72410
O332        O  0.93304581  0.18003978  0.89928071    -0.73390
O333        O  0.99342562  0.17968013  0.89930318    -0.62010
O334        O  0.93321949  0.24142513  0.89993986    -0.70420
O335        O  0.93298375  0.24141099  0.85115122    -0.69970
O336        O  0.99369368  0.18054144  0.85052166    -0.61220
O337        O  0.93278030  0.18069727  0.85049921    -0.73730
O338        O  0.99414138  0.24126301  0.85136436    -0.72510
Cu339      Cu  0.96335333  0.21055043  0.90138961     1.04560
Cu340      Cu  0.96340203  0.21103512  0.84918373     1.04330
C341        C  0.00353106  0.25069903  0.87590127     0.93790
C342        C  0.92352976  0.17061950  0.87480184     0.92930
C343        C  0.00287125  0.17030101  0.87477302     0.85080
C344        C  0.92360439  0.25105301  0.87557546     0.91350
N345        N  0.14730774  0.35913382  0.84038922    -0.26750
N346        N  0.13354731  0.33839508  0.82639398    -0.34610
C347        C  0.14796348  0.33178614  0.80173764     0.01590
C348        C  0.17197406  0.34906861  0.80031883     0.07610
C349        C  0.17098025  0.36613127  0.82511167    -0.05490
H350        H  0.14152290  0.31552088  0.78609003     0.08280
H351        H  0.18614514  0.38261011  0.83140905     0.09480
Cu352      Cu  0.09634132  0.31930134  0.84177976     0.44170
Cu353      Cu  0.13294447  0.37737188  0.87923376     0.41990
Cu354      Cu  0.07208932  0.34243587  0.91335188     0.43880
N355        N  0.06190057  0.30102196  0.86359260    -0.34140
N356        N  0.05386486  0.30862456  0.89033322    -0.28390
C357        C  0.03200491  0.29175917  0.89889063    -0.04490
C358        C  0.02580427  0.27293207  0.87629100     0.07720
C359        C  0.04507310  0.27942193  0.85422384     0.01520
H360        H  0.02114955  0.29340003  0.91983066     0.09170
H361        H  0.04708142  0.26889194  0.83313023     0.08250
N362        N  0.09172828  0.37884201  0.93017806    -0.35590
N363        N  0.11370524  0.39184446  0.91751682    -0.27770
C364        C  0.12082067  0.41515283  0.93338917    -0.03010
C365        C  0.10248552  0.41673398  0.95713014     0.05600
C366        C  0.08434897  0.39344785  0.95451237     0.03690
H367        H  0.13808128  0.42978728  0.92808679     0.08800
H368        H  0.06696877  0.38765421  0.96909116     0.07630
N369        N  0.14638118  0.06393419  0.83852739    -0.26750
N370        N  0.12963100  0.08057741  0.82244466    -0.34610
C371        C  0.14261448  0.08592930  0.79668715     0.01590
C372        C  0.16911578  0.07240408  0.79658693     0.07610
C373        C  0.17071570  0.05874016  0.82362519    -0.05490
H374        H  0.13334151  0.09878781  0.77932508     0.08280
H375        H  0.18832654  0.04602722  0.83201484     0.09480
Cu376      Cu  0.09112508  0.09756903  0.83704997     0.44170
Cu377      Cu  0.13466176  0.04747704  0.87913553     0.41990
Cu378      Cu  0.06883020  0.07578364  0.90925385     0.43880
N379        N  0.05812163  0.11721597  0.85993767    -0.34140
N380        N  0.05084040  0.11000965  0.88700005    -0.28390
C381        C  0.03033218  0.12800326  0.89659722    -0.04490
C382        C  0.02426493  0.14724929  0.87435966     0.07720
C383        C  0.04214839  0.13977108  0.85139638     0.01520
H384        H  0.02033329  0.12688367  0.91801460     0.09170
H385        H  0.04382165  0.15025923  0.83025799     0.08250
N386        N  0.09021944  0.04077882  0.92654570    -0.35590
N387        N  0.11464885  0.03071472  0.91604152    -0.27770
C388        C  0.12288299  0.00805782  0.93233525    -0.03010
C389        C  0.10258476  0.00363351  0.95408432     0.05600
C390        C  0.08215953  0.02475261  0.94962648     0.03690
H391        H  0.14226136  0.99577698  0.92866104     0.08800
H392        H  0.06274322  0.02817604  0.96216286     0.07630
N393        N  0.77732543  0.06650385  0.84304164    -0.26750
N394        N  0.79434755  0.08203246  0.82613436    -0.34610
C395        C  0.78131530  0.08658812  0.80023067     0.01590
C396        C  0.75448763  0.07375884  0.80084342     0.07610
C397        C  0.75276169  0.06129693  0.82849063    -0.05490
H398        H  0.79082046  0.09838790  0.78224133     0.08280
H399        H  0.73493770  0.04934228  0.83750889     0.09480
Cu400      Cu  0.83348028  0.09863887  0.83950447     0.44170
Cu401      Cu  0.78911873  0.05111432  0.88416259     0.41990
Cu402      Cu  0.85720039  0.07708754  0.91106382     0.43880
N403        N  0.86745663  0.11799386  0.86118742    -0.34140
N404        N  0.87527340  0.11082034  0.88810730    -0.28390
C405        C  0.89619247  0.12859750  0.89713847    -0.04490
C406        C  0.90201032  0.14766658  0.87467517     0.07720
C407        C  0.88351993  0.14030754  0.85214930     0.01520
H408        H  0.90657392  0.12751701  0.91837755     0.09170
H409        H  0.88142381  0.15078732  0.83104523     0.08250
N410        N  0.83524750  0.04313090  0.92972815    -0.35590
N411        N  0.80985815  0.03417091  0.92067446    -0.27770
C412        C  0.80145027  0.01210043  0.93769686    -0.03010
C413        C  0.82268734  0.00679586  0.95834632     0.05600
C414        C  0.84381019  0.02687164  0.95246243     0.03690
H415        H  0.78136504  0.00073134  0.93516511     0.08800
H416        H  0.86410447  0.02936897  0.96371466     0.07630
N417        N  0.78248062  0.36158506  0.83537331    -0.26750
N418        N  0.79528637  0.33942189  0.82277253    -0.34610
C419        C  0.78065242  0.33206543  0.79845793     0.01590
C420        C  0.75763623  0.35051212  0.79570313     0.07610
C421        C  0.75935734  0.36895852  0.81938025    -0.05490
H422        H  0.78627501  0.31452673  0.78396196     0.08280
H423        H  0.74485060  0.38635530  0.82465168     0.09480
Cu424      Cu  0.83164125  0.31970886  0.83945876     0.44170
Cu425      Cu  0.79680417  0.38048930  0.87391422     0.41990
Cu426      Cu  0.85706875  0.34552660  0.90954697     0.43880
N427        N  0.86584524  0.30167656  0.86189481    -0.34140
N428        N  0.87433661  0.31028690  0.88816638    -0.28390
C429        C  0.89595565  0.29336096  0.89730830    -0.04490
C430        C  0.90153087  0.27346576  0.87552393     0.07720
C431        C  0.88216488  0.27938365  0.85336275     0.01520
H432        H  0.90715512  0.29576580  0.91799004     0.09170
H433        H  0.87981184  0.26806992  0.83273402     0.08250
N434        N  0.83743903  0.38229851  0.92539333    -0.35590
N435        N  0.81540549  0.39500748  0.91252889    -0.27770
C436        C  0.80771447  0.41807009  0.92847742    -0.03010
C437        C  0.82582698  0.42000129  0.95249729     0.05600
C438        C  0.84443066  0.39699280  0.94976723     0.03690
H439        H  0.79005955  0.43222607  0.92312035     0.08800
H440        H  0.86184242  0.39135789  0.96439651     0.07630
C441        C  0.82457036  0.48339830  0.02189946    -0.04800
C442        C  0.82449999  0.49212161  0.99216021    -0.01920
C443        C  0.82500751  0.47145644  0.96950555     0.03070
C444        C  0.82523801  0.44183249  0.97635370    -0.04800
C445        C  0.82502738  0.43311498  0.00610752    -0.01910
C446        C  0.82489775  0.45378977  0.02875588     0.03070
C447        C  0.82314055  0.52241125  0.98473166     0.37720
C448        C  0.82413659  0.40281768  0.01357186     0.37710
C449        C  0.82599774  0.44445549  0.05914564     0.36130
C450        C  0.82615628  0.48084850  0.93913847     0.36130
N451        N  0.82692281  0.43693484  0.08335304    -0.38690
N452        N  0.82709132  0.48842434  0.91495034    -0.38690
N453        N  0.82340820  0.37866644  0.01955435    -0.38130
N454        N  0.82203407  0.54655824  0.97878928    -0.38140
C455        C  0.82395370  0.94197638  0.02646063    -0.04800
C456        C  0.83174059  0.97053463  0.03299739    -0.01920
C457        C  0.83109571  0.99172482  0.01086994     0.03070
C458        C  0.82295724  0.98444028  0.98181745    -0.04800
C459        C  0.81538257  0.95566361  0.97532590    -0.01910
C460        C  0.81573289  0.93460547  0.99761473     0.03070
C461        C  0.84117104  0.97800334  0.06240741     0.37720
C462        C  0.80810623  0.94729020  0.94555189     0.37710
C463        C  0.80700056  0.90538823  0.99099800     0.36130
C464        C  0.83813165  0.02117653  0.01841913     0.36130
N465        N  0.79996584  0.88209693  0.98580633    -0.38690
N466        N  0.84383381  0.04462392  0.02452386    -0.38690
N467        N  0.80227709  0.94045144  0.92185246    -0.38130
N468        N  0.84879777  0.98394795  0.08582049    -0.38140
C469        C  0.10171366  0.48039097  0.02612584    -0.04800
C470        C  0.08903130  0.48634190  0.99838850    -0.01920
C471        C  0.08886290  0.46528760  0.97608932     0.03070
C472        C  0.10240571  0.43864324  0.98065279    -0.04800
C473        C  0.11572690  0.43278412  0.00773015    -0.01910
C474        C  0.11489055  0.45321365  0.03061153     0.03070
C475        C  0.07694021  0.51437854  0.99202269     0.37720
C476        C  0.13054797  0.40565975  0.01191766     0.37710
C477        C  0.12674592  0.44545400  0.05897846     0.36130
C478        C  0.07442469  0.47089990  0.94842175     0.36130
N479        N  0.13630379  0.43899447  0.08149547    -0.38690
N480        N  0.06275362  0.47528940  0.92643898    -0.38690
N481        N  0.14251221  0.38409892  0.01510376    -0.38130
N482        N  0.06719932  0.53665453  0.98670246    -0.38140
C483        C  0.10273005  0.93894510  0.02218321    -0.04560
C484        C  0.09787194  0.96804071  0.02933390    -0.01920
C485        C  0.09799880  0.98916184  0.00714322     0.03070
C486        C  0.10273744  0.98132194  0.97750115    -0.04800
C487        C  0.10740704  0.95210168  0.97037638    -0.01910
C488        C  0.10750305  0.93104371  0.99265687     0.03070
C489        C  0.09195123  0.97622546  0.05948678     0.37720
C490        C  0.11127035  0.94340780  0.94003395     0.37710
C491        C  0.11323033  0.90126557  0.98524766     0.36130
C492        C  0.09400204  0.01908412  0.01511063     0.36130
N493        N  0.11785003  0.87751935  0.97939070    -0.38690
N494        N  0.09076426  0.04292812  0.02150482    -0.38690
N495        N  0.11435743  0.93635043  0.91586906    -0.38130
N496        N  0.08714640  0.98278967  0.08349988    -0.38140
C497        C  0.73282412  0.57215309  0.22660943    -0.04800
C498        C  0.70343887  0.57465172  0.21948422    -0.01920
C499        C  0.68252117  0.57421148  0.24185387     0.03070
C500        C  0.69077876  0.57146532  0.27162035    -0.04800
C501        C  0.72019993  0.56911858  0.27874556    -0.01910
C502        C  0.74110527  0.56932297  0.25633523     0.03070
C503        C  0.69465134  0.57849550  0.18915629     0.37720
C504        C  0.72916085  0.56739683  0.30921053     0.37710
C505        C  0.77114414  0.56581130  0.26388781     0.36130
C506        C  0.65239259  0.57586963  0.23403507     0.36130
N507        N  0.79510603  0.56296773  0.26985283    -0.38690
N508        N  0.62837073  0.57720669  0.22778423    -0.38690
N509        N  0.73644040  0.56609422  0.33347603    -0.38130
N510        N  0.68758452  0.58159565  0.16499494    -0.38140
C511        C  0.19198726  0.57242525  0.23013429    -0.04800
C512        C  0.18301594  0.57308684  0.25983549    -0.01920
C513        C  0.20345469  0.57334680  0.28270685     0.03070
C514        C  0.23305367  0.57238711  0.27617724    -0.04800
C515        C  0.24202542  0.57112139  0.24656908    -0.01910
C516        C  0.22165187  0.57145419  0.22367228     0.03070
C517        C  0.15271575  0.57276510  0.26709436     0.37720
C518        C  0.27229345  0.56873378  0.23954282     0.37710
C519        C  0.23148799  0.57179731  0.19344308     0.36130
C520        C  0.19391842  0.57555767  0.31296241     0.36130
N521        N  0.23945614  0.57207316  0.16937765    -0.38690
N522        N  0.18625236  0.57739103  0.33706052    -0.38690
N523        N  0.29641758  0.56677907  0.23393077    -0.38130
N524        N  0.12857558  0.57251580  0.27298268    -0.38140
C525        C  0.73536937  0.85020285  0.23055590    -0.04800
C526        C  0.70591070  0.85128522  0.22322625    -0.01920
C527        C  0.68493918  0.85133606  0.24552829     0.03070
C528        C  0.69317146  0.85016956  0.27535709    -0.04800
C529        C  0.72256167  0.84892171  0.28273783    -0.01910
C530        C  0.74358226  0.84897893  0.26044798     0.03070
C531        C  0.69697439  0.85148053  0.19269723     0.37720
C532        C  0.73122763  0.84676212  0.31327008     0.37710
C533        C  0.77370961  0.84852645  0.26843210     0.36130
C534        C  0.65481668  0.85328038  0.23772661     0.36130
N535        N  0.79773540  0.84813922  0.27480634    -0.38690
N536        N  0.63078667  0.85484196  0.23156517    -0.38690
N537        N  0.73820902  0.84496488  0.33759454    -0.38130
N538        N  0.68973127  0.85162816  0.16838415    -0.38140
C539        C  0.19327580  0.84962781  0.22687735    -0.04800
C540        C  0.18438241  0.85227753  0.25639230    -0.01920
C541        C  0.20474442  0.85192967  0.27930248     0.03070
C542        C  0.23436308  0.84954676  0.27290424    -0.04800
C543        C  0.24325390  0.84746779  0.24322873    -0.01910
C544        C  0.22278306  0.84722014  0.22038449     0.03070
C545        C  0.15422211  0.85610269  0.26324841     0.37720
C546        C  0.27351984  0.84633997  0.23591471     0.37710
C547        C  0.23212533  0.84355041  0.19021191     0.36130
C548        C  0.19487999  0.85305493  0.30949904     0.36130
N549        N  0.23961088  0.84052720  0.16617960    -0.38690
N550        N  0.18686546  0.85397239  0.33353209    -0.38690
N551        N  0.29762942  0.84542172  0.22996171    -0.38130
N552        N  0.13018382  0.85922521  0.26869374    -0.38140
C553        C  0.73564629  0.35038491  0.77229979    -0.04800
C554        C  0.71054861  0.33397595  0.77564109    -0.01920
C555        C  0.68924748  0.33426159  0.75361453     0.03070
C556        C  0.69369528  0.34965599  0.72700565    -0.04800
C557        C  0.71954994  0.36551449  0.72362020    -0.01910
C558        C  0.73990310  0.36650540  0.74655328     0.03070
C559        C  0.70670064  0.31667858  0.80188015     0.37720
C560        C  0.72621160  0.37998940  0.69626240     0.37710
C561        C  0.76540649  0.38416546  0.74370873     0.36130
C562        C  0.66243886  0.31948733  0.75929683     0.36130
N563        N  0.78565039  0.39838706  0.74161776    -0.38690
N564        N  0.64117061  0.30759038  0.76415014    -0.38690
N565        N  0.73186426  0.39164568  0.67457196    -0.38130
N566        N  0.70375632  0.30273547  0.82270130    -0.38140
C567        C  0.60088339  0.48060375  0.47694180    -0.04800
C568        C  0.62357665  0.46024895  0.47973841    -0.01920
C569        C  0.62322329  0.43956777  0.50246546     0.03070
C570        C  0.60118050  0.43967922  0.52351599    -0.04800
C571        C  0.57889773  0.45990798  0.52139072    -0.01910
C572        C  0.57818006  0.47967702  0.49788362     0.03070
C573        C  0.64800615  0.46057361  0.46006364     0.37720
C574        C  0.55676267  0.46056123  0.54382099     0.37710
C575        C  0.55317692  0.49801302  0.49513172     0.36130
C576        C  0.64538591  0.41768661  0.50396585     0.36130
N577        N  0.53301915  0.51244419  0.49346702    -0.38690
N578        N  0.66288763  0.40008595  0.50507214    -0.38690
N579        N  0.53931183  0.46113679  0.56187311    -0.38130
N580        N  0.66768673  0.46028148  0.44458115    -0.38140
C581        C  0.23532181  0.34992235  0.73117772    -0.04800
C582        C  0.24220452  0.33882161  0.75936962    -0.01920
C583        C  0.22135695  0.33826986  0.78181447     0.03070
C584        C  0.19380093  0.34960423  0.77674574    -0.04800
C585        C  0.18694824  0.36124859  0.74908026    -0.01910
C586        C  0.20737289  0.36103071  0.72623029     0.03070
C587        C  0.27093375  0.32870254  0.76592395     0.37720
C588        C  0.15887351  0.37390722  0.74429759     0.37710
C589        C  0.19893810  0.37137939  0.69744602     0.36130
C590        C  0.22806934  0.32544939  0.81005672     0.36130
N591        N  0.19196923  0.37972778  0.67458653    -0.38690
N592        N  0.23335433  0.31506568  0.83250906    -0.38690
N593        N  0.13653577  0.38413767  0.74062647    -0.38130
N594        N  0.29377829  0.32053403  0.77134417    -0.38140
C595        C  0.32503186  0.44253120  0.52723481    -0.04800
C596        C  0.32375287  0.47221611  0.53381431    -0.01920
C597        C  0.32308179  0.49268765  0.51098607     0.03070
C598        C  0.32420380  0.48378340  0.48134704    -0.04800
C599        C  0.32548145  0.45416812  0.47470903    -0.01910
C600        C  0.32561468  0.43363435  0.49750119     0.03070
C601        C  0.32405412  0.48196677  0.56408396     0.37720
C602        C  0.32759408  0.44472387  0.44440586     0.37710
C603        C  0.32556604  0.40330161  0.49012515     0.36130
C604        C  0.32048689  0.52297113  0.51810206     0.36130
N605        N  0.32553125  0.37913609  0.48414654    -0.38690
N606        N  0.31835876  0.54710789  0.52379024    -0.38690
N607        N  0.32935176  0.43713423  0.42026943    -0.38130
N608        N  0.32427849  0.48985517  0.58818724    -0.38140
C609        C  0.73248858  0.07344059  0.77689108    -0.04800
C610        C  0.72713779  0.09848854  0.76000341    -0.01920
C611        C  0.70715913  0.09788676  0.73672286     0.03070
C612        C  0.69136445  0.07269741  0.73076977    -0.04800
C613        C  0.69610606  0.04789438  0.74790947    -0.01910
C614        C  0.71687655  0.04805553  0.77047994     0.03070
C615        C  0.74133027  0.12537436  0.76698850     0.37720
C616        C  0.67895907  0.02233608  0.74292331     0.37710
C617        C  0.72257976  0.02163875  0.78634691     0.36130
C618        C  0.70353513  0.12306403  0.71826940     0.36130
N619        N  0.72695561  0.00046595  0.79890098    -0.38690
N620        N  0.70079711  0.14308507  0.70346226    -0.38690
N621        N  0.66517857  0.00201572  0.73904843    -0.38130
N622        N  0.75254154  0.14691211  0.77240633    -0.38140
C623        C  0.60201342  0.98011997  0.52629371    -0.04800
C624        C  0.57791223  0.96242326  0.52165115    -0.01920
C625        C  0.57777388  0.94216288  0.49857292     0.03070
C626        C  0.60245672  0.93827388  0.48071385    -0.04800
C627        C  0.62686840  0.95579678  0.48601239    -0.01910
C628        C  0.62629900  0.97700698  0.50816754     0.03070
C629        C  0.55342925  0.96448881  0.54123255     0.37720
C630        C  0.65314697  0.95174731  0.46948829     0.37710
C631        C  0.65048777  0.99633404  0.51170269     0.36130
C632        C  0.55160758  0.92626933  0.49284930     0.36130
N633        N  0.66965203  0.01190223  0.51439018    -0.38690
N634        N  0.53058430  0.91374592  0.48853571    -0.38690
N635        N  0.67424161  0.94880441  0.45644238    -0.38130
N636        N  0.53401722  0.96598454  0.55698523    -0.38140
C637        C  0.23252501  0.07287268  0.72692313    -0.04800
C638        C  0.21735258  0.09819554  0.73398513    -0.01920
C639        C  0.19720719  0.09824983  0.75709719     0.03070
C640        C  0.19104879  0.07258469  0.77263884    -0.04800
C641        C  0.20591856  0.04707630  0.76503066    -0.01910
C642        C  0.22689257  0.04739678  0.74270767     0.03070
C643        C  0.22178528  0.12412573  0.71686299     0.37720
C644        C  0.19925006  0.02008907  0.77942597     0.37710
C645        C  0.24334952  0.02158809  0.73666204     0.36130
C646        C  0.18370947  0.12515784  0.76535645     0.36130
N647        N  0.25655517  0.00104782  0.73193927    -0.38690
N648        N  0.17306613  0.14671859  0.77180867    -0.38690
N649        N  0.19409460  0.99846890  0.79080479    -0.38130
N650        N  0.22516964  0.14476714  0.70313144    -0.38140
C651        C  0.32381218  0.98342667  0.52267698    -0.04800
C652        C  0.31103528  0.98963768  0.49540257    -0.01920
C653        C  0.31187989  0.96929084  0.47244652     0.03070
C654        C  0.32456439  0.94189698  0.47701301    -0.04800
C655        C  0.33671771  0.93561313  0.50491752    -0.01910
C656        C  0.33686077  0.95654912  0.52732454     0.03070
C657        C  0.29670645  0.01701008  0.49110431     0.37720
C658        C  0.34829925  0.90736964  0.51132086     0.37710
C659        C  0.35090013  0.95062316  0.55514003     0.36130
C660        C  0.30054000  0.97733061  0.44393979     0.36130
N661        N  0.36227033  0.94599643  0.57723694    -0.38690
N662        N  0.29139262  0.98400653  0.42131045    -0.38690
N663        N  0.35763451  0.88492774  0.51667299    -0.38130
N664        N  0.28513297  0.03877010  0.48782044    -0.38140
loop_ 
_geom_bond_atom_site_label_1 
_geom_bond_atom_site_label_2 
_geom_bond_distance 
_geom_bond_site_symmetry_2 
_ccdc_geom_bond_type 
N1            N2   1.322       .  A
N1            C5   1.345       .  A
N1           Cu9   2.074       .  S
N2            C3   1.344       .  A
N2           Cu8   2.070       .  S
C3            C4   1.383       .  A
C3            H6   1.082       .  S
C4            C5   1.384       .  A
C4          C637   1.487       .  S
C5            H7   1.082       .  S
Cu8          N11   2.070       .  S
Cu9          N19   2.074       .  S
Cu10         N12   2.071       .  S
Cu10         N18   2.071       .  S
N11          N12   1.322       .  A
N11          C15   1.345       .  A
N12          C13   1.344       .  A
C13          C14   1.382       .  A
C13          H16   1.082       .  S
C14          C15   1.382       .  A
C14          C35   1.465       .  S
C15          H17   1.082       .  S
N18          N19   1.323       .  A
N18          C22   1.345       .  A
N19          C20   1.345       .  A
C20          C21   1.381       .  A
C20          H23   1.082   1_545  S
C21          C22   1.380       .  A
C21         C651   1.479   1_545  S
C22          H24   1.082       .  S
O25         Cu33   2.011       .  S
O25          C35   1.278       .  A
O26         Cu33   2.014       .  S
O26          C36   1.278       .  A
O27         Cu33   2.007       .  S
O27          C37   1.277       .  A
O28         Cu33   2.004       .  S
O28          C38   1.277       .  A
O29         Cu34   2.009       .  S
O29          C38   1.277       .  A
O30         Cu34   2.009       .  S
O30          C37   1.277       .  A
O31         Cu34   2.003       .  S
O31          C36   1.276       .  A
O32         Cu34   2.003       .  S
O32          C35   1.277       .  A
Cu33        Cu34   2.378       .  S
C36         C100   1.465       .  S
C37          C76   1.465       .  S
C38          C52   1.465       .  S
N39          N40   1.322       .  A
N39          C43   1.346       .  A
N39         Cu47   2.078       .  S
N40          C41   1.344       .  A
N40         Cu46   2.070       .  S
C41          C42   1.382       .  A
C41          H44   1.082       .  S
C42          C43   1.384       .  A
C42         C612   1.486       .  S
C43          H45   1.082       .  S
Cu46         N49   2.070       .  S
Cu47         N57   2.078       .  S
Cu48         N50   2.070       .  S
Cu48         N56   2.071       .  S
N49          N50   1.322       .  A
N49          C53   1.344       .  A
N50          C51   1.345       .  A
C51          C52   1.382       .  A
C51          H54   1.082       .  S
C52          C53   1.382       .  A
C53          H55   1.083       .  S
N56          N57   1.323       .  A
N56          C60   1.344       .  A
N57          C58   1.346       .  A
C58          C59   1.384       .  A
C58          H61   1.082   1_545  S
C59          C60   1.382       .  A
C59         C623   1.485   1_545  S
C60          H62   1.082       .  S
N63          N64   1.321       .  A
N63          C67   1.345       .  A
N63         Cu71   2.075       .  S
N64          C65   1.343       .  A
N64         Cu70   2.072       .  S
C65          C66   1.388       .  A
C65          H68   1.081       .  S
C66          C67   1.389       .  A
C66         C581   1.497       .  S
C67          H69   1.081       .  S
Cu70         N73   2.072       .  S
Cu71         N81   2.076       .  S
Cu72         N74   2.069       .  S
Cu72         N80   2.069       .  S
N73          N74   1.322       .  A
N73          C77   1.345       .  A
N74          C75   1.345       .  A
C75          C76   1.381       .  A
C75          H78   1.082       .  S
C76          C77   1.382       .  A
C77          H79   1.082       .  S
N80          N81   1.322       .  A
N80          C84   1.343       .  A
N81          C82   1.345       .  A
C82          C83   1.386       .  A
C82          H85   1.082       .  S
C83          C84   1.384       .  A
C83         C595   1.491       .  S
C84          H86   1.082       .  S
N87          N88   1.320       .  A
N87          C91   1.345       .  A
N87         Cu95   2.078       .  S
N88          C89   1.343       .  A
N88         Cu94   2.072       .  S
C89          C90   1.390       .  A
C89          H92   1.081       .  S
C90          C91   1.391       .  A
C90         C556   1.503       .  S
C91          H93   1.081       .  S
Cu94         N97   2.072       .  S
Cu95        N105   2.080       .  S
Cu96         N98   2.069       .  S
Cu96        N104   2.070       .  S
N97          N98   1.322       .  A
N97         C101   1.346       .  A
N98          C99   1.344       .  A
C99         C100   1.381       .  A
C99         H102   1.082       .  S
C100        C101   1.382       .  A
C101        H103   1.082       .  S
N104        N105   1.323       .  A
N104        C108   1.344       .  A
N105        C106   1.346       .  A
C106        C107   1.382       .  A
C106        H109   1.082       .  S
C107        C108   1.380       .  A
C107        C570   1.481       .  S
C108        H110   1.082       .  S
N111        N112   1.322       .  A
N111        C115   1.345       .  A
N111       Cu119   2.076       .  S
N112        C113   1.344       .  A
N112       Cu118   2.071       .  S
C113        C114   1.385       .  A
C113        H116   1.082       .  S
C114        C115   1.387       .  A
C114        C542   1.492       .  S
C115        H117   1.082       .  S
Cu118       N121   2.071       .  S
Cu119       N129   2.075       .  S
Cu120       N122   2.071       .  S
Cu120       N128   2.071       .  S
N121        N122   1.322       .  A
N121        C125   1.344       .  A
N122        C123   1.345       .  A
C123        C124   1.382       .  A
C123        H126   1.082       .  S
C124        C125   1.381       .  A
C124        C147   1.465       .  S
C125        H127   1.082       .  S
N128        N129   1.320       .  A
N128        C132   1.343       .  A
N129        C130   1.344       .  A
C130        C131   1.390       .  A
C130        H133   1.081       .  S
C131        C132   1.388       .  A
C131        C654   1.499       .  S
C132        H134   1.081       .  S
O135       Cu143   2.014       .  S
O135        C145   1.279       .  A
O136       Cu143   2.012       .  S
O136        C146   1.278       .  A
O137       Cu143   2.004       .  S
O137        C147   1.276       .  A
O138       Cu143   2.006       .  S
O138        C148   1.277       .  A
O139       Cu144   2.012       .  S
O139        C148   1.278       .  A
O140       Cu144   2.014       .  S
O140        C147   1.278       .  A
O141       Cu144   2.006       .  S
O141        C146   1.277       .  A
O142       Cu144   2.003       .  S
O142        C145   1.276       .  A
Cu143      Cu144   2.377       .  S
C145        C162   1.467       .  S
C146        C186   1.466       .  S
C148        C210   1.467       .  S
N149        N150   1.322       .  A
N149        C153   1.346       .  A
N149       Cu157   2.076       .  S
N150        C151   1.344       .  A
N150       Cu156   2.067       .  S
C151        C152   1.382       .  A
C151        H154   1.082       .  S
C152        C153   1.384       .  A
C152        C528   1.485       .  S
C153        H155   1.082       .  S
Cu156       N159   2.067       .  S
Cu157       N167   2.075       .  S
Cu158       N160   2.078       .  S
Cu158       N166   2.077       .  S
N159        N160   1.322       .  A
N159        C163   1.345       .  A
N160        C161   1.345       .  A
C161        C162   1.383       .  A
C161        H164   1.082       .  S
C162        C163   1.381       .  A
C163        H165   1.083       .  S
N166        N167   1.321       .  A
N166        C170   1.344       .  A
N167        C168   1.344       .  A
C168        C169   1.390       .  A
C168        H171   1.081       .  S
C169        C170   1.390       .  A
C169        C626   1.502       .  S
C170        H172   1.081       .  S
N173        N174   1.322       .  A
N173        C177   1.345       .  A
N173       Cu181   2.073       .  S
N174        C175   1.344       .  A
N174       Cu180   2.071       .  S
C175        C176   1.383       .  A
C175        H178   1.082       .  S
C176        C177   1.384       .  A
C176        C514   1.487       .  S
C177        H179   1.082       .  S
Cu180       N183   2.071       .  S
Cu181       N191   2.073       .  S
Cu182       N184   2.072       .  S
Cu182       N190   2.072       .  S
N183        N184   1.322       .  A
N183        C187   1.346       .  A
N184        C185   1.344       .  A
C185        C186   1.382       .  A
C185        H188   1.082       .  S
C186        C187   1.382       .  A
C187        H189   1.082       .  S
N190        N191   1.322       .  A
N190        C194   1.344       .  A
N191        C192   1.345       .  A
C192        C193   1.384       .  A
C192        H195   1.082       .  S
C193        C194   1.383       .  A
C193        C598   1.486       .  S
C194        H196   1.082       .  S
N197        N198   1.319       .  A
N197        C201   1.345       .  A
N197       Cu205   2.083       .  S
N198        C199   1.343       .  A
N198       Cu204   2.077       .  S
C199        C200   1.393       .  A
C199        H202   1.078       .  S
C200        C201   1.395       .  A
C200        C567   1.511       .  S
C201        H203   1.078       .  S
Cu204       N207   2.077       .  S
Cu205       N215   2.083       .  S
Cu206       N208   2.068       .  S
Cu206       N214   2.068       .  S
N207        N208   1.322       .  A
N207        C211   1.346       .  A
N208        C209   1.344       .  A
C209        C210   1.382       .  A
C209        H212   1.083       .  S
C210        C211   1.383       .  A
C211        H213   1.082       .  S
N214        N215   1.322       .  A
N214        C218   1.344       .  A
N215        C216   1.347       .  A
C216        C217   1.386       .  A
C216        H219   1.082       .  S
C217        C218   1.383       .  A
C217        C500   1.489       .  S
C218        H220   1.082       .  S
O221       Cu229   2.003       .  S
O221        C231   1.277       .  A
O222       Cu229   2.003       .  S
O222        C232   1.276   1_655  A
O223       Cu229   2.010       .  S
O223        C233   1.278   1_655  A
O224       Cu229   2.010       .  S
O224        C234   1.278       .  A
O225       Cu230   2.003       .  S
O225        C234   1.277       .  A
O226       Cu230   2.006       .  S
O226        C233   1.277   1_655  A
O227       Cu230   2.011       .  S
O227        C232   1.278   1_655  A
O228       Cu230   2.012       .  S
O228        C231   1.278       .  A
Cu229      Cu230   2.378       .  S
C231        C296   1.466       .  S
C232        C272   1.464       .  S
C233        C248   1.466       .  S
C234        C320   1.465       .  S
N235        N236   1.322       .  A
N235        C239   1.345       .  A
N235       Cu243   2.072       .  S
N236        C237   1.344       .  A
N236       Cu242   2.071       .  S
C237        C238   1.383       .  A
C237        H240   1.082       .  S
C238        C239   1.384       .  A
C238        C539   1.486       .  S
C239        H241   1.082       .  S
Cu242       N245   2.071       .  S
Cu243       N253   2.072       .  S
Cu244       N246   2.071       .  S
Cu244       N252   2.072       .  S
N245        N246   1.322       .  A
N245        C249   1.345       .  A
N246        C247   1.345       .  A
C247        C248   1.382       .  A
C247        H250   1.082       .  S
C248        C249   1.382       .  A
C249        H251   1.082       .  S
N252        N253   1.323       .  A
N252        C256   1.344       .  A
N253        C254   1.344       .  A
C254        C255   1.382       .  A
C254        H257   1.082       .  S
C255        C256   1.382       .  A
C255        C483   1.483       .  S
C256        H258   1.082       .  S
N259        N260   1.322       .  A
N259        C263   1.345       .  A
N259       Cu267   2.076       .  S
N260        C261   1.344       .  A
N260       Cu266   2.069       .  S
C261        C262   1.384       .  A
C261        H264   1.082       .  S
C262        C263   1.386       .  A
C262        C511   1.491       .  S
C263        H265   1.082       .  S
Cu266       N269   2.069       .  S
Cu267       N277   2.076       .  S
Cu268       N270   2.071       .  S
Cu268       N276   2.071       .  S
N269        N270   1.322       .  A
N269        C273   1.344       .  A
N270        C271   1.345       .  A
C271        C272   1.382       .  A
C271        H274   1.082       .  S
C272        C273   1.381       .  A
C273        H275   1.082       .  S
N276        N277   1.320       .  A
N276        C280   1.343       .  A
N277        C278   1.344       .  A
C278        C279   1.390       .  A
C278        H281   1.081       .  S
C279        C280   1.388       .  A
C279        C469   1.500       .  S
C280        H282   1.081       .  S
N283        N284   1.322       .  A
N283        C287   1.345       .  A
N283       Cu291   2.073       .  S
N284        C285   1.345       .  A
N284       Cu290   2.071       .  S
C285        C286   1.384       .  A
C285        H288   1.082       .  S
C286        C287   1.385       .  A
C286        C525   1.488       .  S
C287        H289   1.082       .  S
Cu290       N293   2.071       .  S
Cu291       N301   2.074       .  S
Cu292       N294   2.071       .  S
Cu292       N300   2.072       .  S
N293        N294   1.322       .  A
N293        C297   1.344       .  A
N294        C295   1.345       .  A
C295        C296   1.382       .  A
C295        H298   1.082       .  S
C296        C297   1.382       .  A
C297        H299   1.082       .  S
N300        N301   1.323       .  A
N300        C304   1.345       .  A
N301        C302   1.345       .  A
C302        C303   1.382       .  A
C302        H305   1.082       .  S
C303        C304   1.382       .  A
C303        C455   1.482       .  S
C304        H306   1.082       .  S
N307        N308   1.322       .  A
N307        C311   1.345       .  A
N307       Cu315   2.075       .  S
N308        C309   1.344       .  A
N308       Cu314   2.069       .  S
C309        C310   1.383       .  A
C309        H312   1.082       .  S
C310        C311   1.385       .  A
C310        C441   1.487       .  S
C311        H313   1.082       .  S
Cu314       N317   2.069       .  S
Cu315       N325   2.075       .  S
Cu316       N318   2.071       .  S
Cu316       N324   2.072       .  S
N317        N318   1.322       .  A
N317        C321   1.344       .  A
N318        C319   1.345       .  A
C319        C320   1.382       .  A
C319        H322   1.082       .  S
C320        C321   1.381       .  A
C321        H323   1.083       .  S
N324        N325   1.322       .  A
N324        C328   1.344       .  A
N325        C326   1.345       .  A
C326        C327   1.384       .  A
C326        H329   1.082       .  S
C327        C328   1.383       .  A
C327        C497   1.487       .  S
C328        H330   1.082       .  S
O331       Cu339   2.007       .  S
O331        C341   1.277   1_655  A
O332       Cu339   2.006       .  S
O332        C342   1.277       .  A
O333       Cu339   2.010       .  S
O333        C343   1.278   1_655  A
O334       Cu339   2.011       .  S
O334        C344   1.278       .  A
O335       Cu340   2.005       .  S
O335        C344   1.277       .  A
O336       Cu340   2.003       .  S
O336        C343   1.276   1_655  A
O337       Cu340   2.010       .  S
O337        C342   1.277       .  A
O338       Cu340   2.012       .  S
O338        C341   1.278   1_655  A
Cu339      Cu340   2.377       .  S
C341        C358   1.467       .  S
C342        C406   1.466       .  S
C343        C382   1.465       .  S
C344        C430   1.465       .  S
N345        N346   1.323       .  A
N345        C349   1.345       .  A
N345       Cu353   2.073       .  S
N346        C347   1.345       .  A
N346       Cu352   2.072       .  S
C347        C348   1.381       .  A
C347        H350   1.082       .  S
C348        C349   1.381       .  A
C348        C584   1.480       .  S
C349        H351   1.082       .  S
Cu352       N355   2.072       .  S
Cu353       N363   2.073       .  S
Cu354       N356   2.073       .  S
Cu354       N362   2.073       .  S
N355        N356   1.322       .  A
N355        C359   1.345       .  A
N356        C357   1.345       .  A
C357        C358   1.382       .  A
C357        H360   1.082       .  S
C358        C359   1.382       .  A
C359        H361   1.082       .  S
N362        N363   1.323       .  A
N362        C366   1.345       .  A
N363        C364   1.345       .  A
C364        C365   1.381       .  A
C364        H367   1.082       .  S
C365        C366   1.380       .  A
C365        C472   1.479       .  S
C366        H368   1.082       .  S
N369        N370   1.321       .  A
N369        C373   1.344       .  A
N369       Cu377   2.075       .  S
N370        C371   1.344       .  A
N370       Cu376   2.072       .  S
C371        C372   1.387       .  A
C371        H374   1.082       .  S
C372        C373   1.388       .  A
C372        C640   1.496       .  S
C373        H375   1.082       .  S
Cu376       N379   2.072       .  S
Cu377       N387   2.075       .  S
Cu378       N380   2.066       .  S
Cu378       N386   2.066       .  S
N379        N380   1.322       .  A
N379        C383   1.345       .  A
N380        C381   1.344       .  A
C381        C382   1.381       .  A
C381        H384   1.082       .  S
C382        C383   1.382       .  A
C383        H385   1.082       .  S
N386        N387   1.321       .  A
N386        C390   1.343       .  A
N387        C388   1.345       .  A
C388        C389   1.386       .  A
C388        H391   1.082   1_545  S
C389        C390   1.384       .  A
C389        C486   1.489   1_545  S
C390        H392   1.082       .  S
N393        N394   1.322       .  A
N393        C397   1.345       .  A
N393       Cu401   2.079       .  S
N394        C395   1.343       .  A
N394       Cu400   2.073       .  S
C395        C396   1.387       .  A
C395        H398   1.082       .  S
C396        C397   1.389       .  A
C396        C609   1.497       .  S
C397        H399   1.082       .  S
Cu400       N403   2.073       .  S
Cu401       N411   2.078       .  S
Cu402       N404   2.067       .  S
Cu402       N410   2.067       .  S
N403        N404   1.322       .  A
N403        C407   1.346       .  A
N404        C405   1.344       .  A
C405        C406   1.382       .  A
C405        H408   1.082       .  S
C406        C407   1.383       .  A
C407        H409   1.082       .  S
N410        N411   1.321       .  A
N410        C414   1.343       .  A
N411        C412   1.346       .  A
C412        C413   1.387       .  A
C412        H415   1.082       .  S
C413        C414   1.384       .  A
C413        C458   1.492   1_545  S
C414        H416   1.082       .  S
N417        N418   1.323       .  A
N417        C421   1.345       .  A
N417       Cu425   2.074       .  S
N418        C419   1.345       .  A
N418       Cu424   2.072       .  S
C419        C420   1.380       .  A
C419        H422   1.082       .  S
C420        C421   1.381       .  A
C420        C553   1.479       .  S
C421        H423   1.082       .  S
Cu424       N427   2.071       .  S
Cu425       N435   2.074       .  S
Cu426       N428   2.071       .  S
Cu426       N434   2.071       .  S
N427        N428   1.322       .  A
N427        C431   1.344       .  A
N428        C429   1.345       .  A
C429        C430   1.382       .  A
C429        H432   1.082       .  S
C430        C431   1.382       .  A
C431        H433   1.082       .  S
N434        N435   1.322       .  A
N434        C438   1.344       .  A
N435        C436   1.345       .  A
C436        C437   1.385       .  A
C436        H439   1.082       .  S
C437        C438   1.384       .  A
C437        C444   1.488       .  S
C438        H440   1.082       .  S
C441        C442   1.414   1_554  A
C441        C446   1.413       .  A
C442        C443   1.411       .  A
C442        C447   1.451       .  S
C443        C444   1.414       .  A
C443        C450   1.451       .  S
C444        C445   1.414   1_556  A
C445        C446   1.411       .  A
C445        C448   1.451       .  S
C446        C449   1.451       .  S
C447        N454   1.157       .  T
C448        N453   1.157       .  T
C449        N451   1.157       .  T
C450        N452   1.157       .  T
C455        C456   1.410       .  A
C455        C460   1.411   1_554  A
C456        C457   1.410       .  A
C456        C461   1.452       .  S
C457        C458   1.417   1_554  A
C457        C464   1.451   1_565  S
C458        C459   1.417       .  A
C459        C460   1.411       .  A
C459        C462   1.451       .  S
C460        C463   1.452       .  S
C461        N468   1.157       .  T
C462        N467   1.157       .  T
C463        N465   1.157       .  T
C464        N466   1.157       .  T
C469        C470   1.422   1_554  A
C469        C474   1.421       .  A
C470        C471   1.411       .  A
C470        C475   1.451       .  S
C471        C472   1.407       .  A
C471        C478   1.452       .  S
C472        C473   1.407   1_556  A
C473        C474   1.411       .  A
C473        C476   1.452       .  S
C474        C477   1.450       .  S
C475        N482   1.158       .  T
C476        N481   1.157       .  T
C477        N479   1.158       .  T
C478        N480   1.157       .  T
C483        C484   1.411       .  A
C483        C488   1.412   1_554  A
C484        C485   1.410       .  A
C484        C489   1.452       .  S
C485        C486   1.416   1_554  A
C485        C492   1.451   1_565  S
C486        C487   1.415       .  A
C487        C488   1.411       .  A
C487        C490   1.451       .  S
C488        C491   1.451       .  S
C489        N496   1.157       .  T
C490        N495   1.157       .  T
C491        N493   1.157       .  T
C492        N494   1.157       .  T
C497        C498   1.413       .  A
C497        C502   1.414       .  A
C498        C499   1.411       .  A
C498        C503   1.451       .  S
C499        C500   1.415       .  A
C499        C506   1.451       .  S
C500        C501   1.414       .  A
C501        C502   1.412       .  A
C501        C504   1.451       .  S
C502        C505   1.451       .  S
C503        N510   1.157       .  T
C504        N509   1.157       .  T
C505        N507   1.157       .  T
C506        N508   1.157       .  T
C511        C512   1.416       .  A
C511        C516   1.415       .  A
C512        C513   1.411       .  A
C512        C517   1.451       .  S
C513        C514   1.413       .  A
C513        C520   1.452       .  S
C514        C515   1.413       .  A
C515        C516   1.410       .  A
C515        C518   1.452       .  S
C516        C519   1.451       .  S
C517        N524   1.157       .  T
C518        N523   1.157       .  T
C519        N521   1.157       .  T
C520        N522   1.157       .  T
C525        C526   1.414       .  A
C525        C530   1.415       .  A
C526        C527   1.410       .  A
C526        C531   1.451       .  S
C527        C528   1.412       .  A
C527        C534   1.452       .  S
C528        C529   1.412       .  A
C529        C530   1.411       .  A
C529        C532   1.451       .  S
C530        C533   1.451       .  S
C531        N538   1.157       .  T
C532        N537   1.157       .  T
C533        N535   1.157       .  T
C534        N536   1.157       .  T
C539        C540   1.412       .  A
C539        C544   1.412       .  A
C540        C541   1.410       .  A
C540        C545   1.452       .  S
C541        C542   1.416       .  A
C541        C548   1.451       .  S
C542        C543   1.417       .  A
C543        C544   1.412       .  A
C543        C546   1.451       .  S
C544        C547   1.452       .  S
C545        N552   1.157       .  T
C546        N551   1.157       .  T
C547        N549   1.157       .  T
C548        N550   1.157       .  T
C553        C554   1.406       .  A
C553        C558   1.406       .  A
C554        C555   1.411       .  A
C554        C559   1.452       .  S
C555        C556   1.423       .  A
C555        C562   1.451       .  S
C556        C557   1.423       .  A
C557        C558   1.412       .  A
C557        C560   1.450       .  S
C558        C561   1.452       .  S
C559        N566   1.157       .  T
C560        N565   1.158       .  T
C561        N563   1.157       .  T
C562        N564   1.158       .  T
C567        C568   1.426       .  A
C567        C572   1.426       .  A
C568        C569   1.414       .  A
C568        C573   1.450       .  S
C569        C570   1.406       .  A
C569        C576   1.452       .  S
C570        C571   1.405       .  A
C571        C572   1.412       .  A
C571        C574   1.453       .  S
C572        C575   1.450       .  S
C573        N580   1.158       .  T
C574        N579   1.157       .  T
C575        N577   1.158       .  T
C576        N578   1.157       .  T
C581        C582   1.420       .  A
C581        C586   1.420       .  A
C582        C583   1.411       .  A
C582        C587   1.451       .  S
C583        C584   1.408       .  A
C583        C590   1.452       .  S
C584        C585   1.408       .  A
C585        C586   1.411       .  A
C585        C588   1.452       .  S
C586        C589   1.451       .  S
C587        N594   1.158       .  T
C588        N593   1.157       .  T
C589        N591   1.157       .  T
C590        N592   1.157       .  T
C595        C596   1.415       .  A
C595        C600   1.416       .  A
C596        C597   1.411       .  A
C596        C601   1.451       .  S
C597        C598   1.413       .  A
C597        C604   1.452       .  S
C598        C599   1.413       .  A
C599        C600   1.411       .  A
C599        C602   1.452       .  S
C600        C603   1.451       .  S
C601        N608   1.157       .  T
C602        N607   1.157       .  T
C603        N605   1.157       .  T
C604        N606   1.157       .  T
C609        C610   1.419       .  A
C609        C614   1.419       .  A
C610        C611   1.411       .  A
C610        C615   1.451       .  S
C611        C612   1.411       .  A
C611        C618   1.452       .  S
C612        C613   1.411       .  A
C613        C614   1.412       .  A
C613        C616   1.452       .  S
C614        C617   1.451       .  S
C615        N622   1.158       .  T
C616        N621   1.157       .  T
C617        N619   1.157       .  T
C618        N620   1.157       .  T
C623        C624   1.410       .  A
C623        C628   1.409       .  A
C624        C625   1.412       .  A
C624        C629   1.452       .  S
C625        C626   1.421       .  A
C625        C632   1.451       .  S
C626        C627   1.421       .  A
C627        C628   1.412       .  A
C627        C630   1.451       .  S
C628        C631   1.452       .  S
C629        N636   1.157       .  T
C630        N635   1.158       .  T
C631        N633   1.157   1_565  T
C632        N634   1.158       .  T
C637        C638   1.412       .  A
C637        C642   1.412       .  A
C638        C639   1.411       .  A
C638        C643   1.452       .  S
C639        C640   1.418       .  A
C639        C646   1.451       .  S
C640        C641   1.418       .  A
C641        C642   1.411       .  A
C641        C644   1.451       .  S
C642        C645   1.452       .  S
C643        N650   1.157       .  T
C644        N649   1.157   1_545  T
C645        N647   1.157       .  T
C646        N648   1.158       .  T
C651        C652   1.407       .  A
C651        C656   1.407       .  A
C652        C653   1.411       .  A
C652        C657   1.452   1_565  S
C653        C654   1.421       .  A
C653        C660   1.450       .  S
C654        C655   1.421       .  A
C655        C656   1.411       .  A
C655        C658   1.451       .  S
C656        C659   1.452       .  S
C657        N664   1.157       .  T
C658        N663   1.158       .  T
C659        N661   1.157       .  T
C660        N662   1.158       .  T
