geometry optimzed in LAMMPS
_audit_creation_date              2020-11-30 
_audit_creation_method            'lammps2cif' 
_symmetry_space_group_name_H-M    'P1' 
_symmetry_Int_Tables_number       1 
_symmetry_cell_setting            triclinic 
loop_ 
_symmetry_equiv_pos_as_xyz 
  x,y,z 
_cell_length_a                    45.937165905556384 
_cell_length_b                    46.02306941606761 
_cell_length_c                    45.71635747094126 
_cell_angle_alpha                 90.07138013699726 
_cell_angle_beta                  90.07526197602787 
_cell_angle_gamma                 90.07892315816909 
loop_ 
_atom_site_label 
_atom_site_type_symbol 
_atom_site_fract_x 
_atom_site_fract_y 
_atom_site_fract_z 
_atom_site_charge 
N1          N  0.27650679  0.06035174  0.66342527    -0.27370
N2          N  0.28843911  0.08151081  0.67895250    -0.35220
C3          C  0.27214097  0.08617868  0.70287425     0.00970
C4          C  0.24873817  0.06717978  0.70238227     0.07000
C5          C  0.25240791  0.05093429  0.67714472    -0.06100
H6          H  0.27725576  0.10191460  0.71970943     0.07670
H7          H  0.23947817  0.03269165  0.66983691     0.08870
Cu8        Cu  0.32708614  0.10232189  0.66823150     0.44170
Cu9        Cu  0.29350333  0.04436813  0.62469164     0.41990
Cu10       Cu  0.35590211  0.08210743  0.59752434     0.43880
N11         N  0.36520530  0.11958257  0.65121563    -0.34750
N12         N  0.37481541  0.11269891  0.62485632    -0.29010
C13         C  0.39892098  0.12812391  0.61918869    -0.05110
C14         C  0.40507464  0.14533557  0.64318412     0.07110
C15         C  0.38332866  0.13939305  0.66323398     0.00900
H16         H  0.41115084  0.12683510  0.59902252     0.08560
H17         H  0.38041025  0.14925810  0.68450670     0.07630
N18         N  0.33633884  0.04803874  0.57533188    -0.36200
N19         N  0.31361384  0.03376842  0.58562650    -0.28380
C20         C  0.30710320  0.01179225  0.56735197    -0.03620
C21         C  0.32646363  0.01246675  0.54413183     0.04990
C22         C  0.34487591  0.03559331  0.55015563     0.03080
H23         H  0.29048613  0.99573048  0.57163744     0.08190
H24         H  0.36354572  0.04246017  0.53750290     0.07020
O25         O  0.44601197  0.23603017  0.67051215    -0.73020
O26         O  0.50099402  0.17001171  0.66972054    -0.74000
O27         O  0.50786603  0.23101483  0.66876632    -0.62620
O28         O  0.43922361  0.17499749  0.66960836    -0.71030
O29         O  0.43972969  0.17558473  0.62103766    -0.70580
O30         O  0.50599919  0.23051993  0.62022242    -0.61840
O31         O  0.50074815  0.16873251  0.62115871    -0.74350
O32         O  0.44497487  0.23739764  0.62196359    -0.73130
Cu33       Cu  0.47355204  0.20303256  0.67135678     1.04560
Cu34       Cu  0.47283975  0.20307175  0.61939241     1.04330
C35         C  0.43670692  0.24722067  0.64682992     0.93180
C36         C  0.50956793  0.15877813  0.64577974     0.92320
C37         C  0.51746198  0.23956103  0.64391501     0.84460
C38         C  0.42901424  0.16639782  0.64497867     0.90730
N39         N  0.64170513  0.04306711  0.70353895    -0.27370
N40         N  0.62672136  0.06511383  0.71421836    -0.35220
C41         C  0.63936677  0.07436278  0.73906178     0.00970
C42         C  0.66388838  0.05762233  0.74412507     0.07000
C43         C  0.66443353  0.03774465  0.72130507    -0.06100
H44         H  0.63094153  0.09178153  0.75241317     0.07670
H45         H  0.68051002  0.02097664  0.71760181     0.08870
Cu46       Cu  0.59128636  0.08322360  0.69323291     0.44170
Cu47       Cu  0.63034257  0.02199714  0.66500111     0.41990
Cu48       Cu  0.57070248  0.05514984  0.62290326     0.43880
N49         N  0.56124060  0.10297552  0.66612085    -0.34750
N50         N  0.55423837  0.09362450  0.63968969    -0.29010
C51         C  0.53519076  0.11238403  0.62754030    -0.05110
C52         C  0.52994256  0.13433026  0.64757885     0.07110
C53         C  0.54671390  0.12758417  0.67171562     0.00900
H54         H  0.52537752  0.10980022  0.60618263     0.08560
H55         H  0.54832682  0.13974940  0.69191512     0.07630
N56         N  0.59099577  0.01635462  0.61211911    -0.36200
N57         N  0.61292246  0.00472276  0.62679817    -0.28380
C58         C  0.62184770  0.98064752  0.61271457    -0.03620
C59         C  0.60439011  0.97670449  0.58836228     0.04990
C60         C  0.58524374  0.99983259  0.58855022     0.03080
H61         H  0.63999879  0.96725255  0.61945111     0.08190
H62         H  0.56919078  0.00506459  0.57206303     0.07020
N63         N  0.33568736  0.40380199  0.63601040    -0.27370
N64         N  0.35492279  0.39073992  0.61893303    -0.35220
C65         C  0.35813970  0.40630690  0.59430089     0.00970
C66         C  0.33976484  0.43000235  0.59562902     0.07000
C67         C  0.32601842  0.42789329  0.62246579    -0.06100
H68         H  0.37239472  0.40046546  0.57642774     0.07670
H69         H  0.31038381  0.44286071  0.63168708     0.08870
Cu70       Cu  0.37535946  0.35159364  0.62810013     0.44170
Cu71       Cu  0.32238525  0.38838303  0.67664530     0.41990
Cu72       Cu  0.35314785  0.31967808  0.69581445     0.43880
N73         N  0.39145171  0.31213448  0.64281784    -0.34750
N74         N  0.38366661  0.30124076  0.66836609    -0.29010
C75         C  0.39833100  0.27653965  0.67308555    -0.05110
C76         C  0.41592925  0.27127509  0.64920981     0.07110
C77         C  0.41107268  0.29423023  0.63027634     0.00900
H78         H  0.39633522  0.26335918  0.69256023     0.08560
H79         H  0.42162928  0.29812698  0.60951663     0.07630
N80         N  0.32138282  0.33987825  0.72041947    -0.36200
N81         N  0.31054494  0.36562978  0.71408129    -0.28380
C82         C  0.28997671  0.37222842  0.73391713    -0.03620
C83         C  0.28754120  0.34940328  0.75374823     0.04990
C84         C  0.30777745  0.32917477  0.74405783     0.03080
H85         H  0.27721540  0.39195842  0.73344976     0.08190
H86         H  0.31157511  0.30760177  0.75219451     0.07020
N87         N  0.67353591  0.34124337  0.65922602    -0.27370
N88         N  0.66032732  0.32128718  0.67526959    -0.35220
C89         C  0.67537124  0.31741752  0.70015687     0.00970
C90         C  0.69894523  0.33609374  0.70004086     0.07000
C91         C  0.69737634  0.35058953  0.67359729    -0.06100
H92         H  0.66940684  0.30217108  0.71708905     0.07670
H93         H  0.71194147  0.36737603  0.66581117     0.08870
Cu94       Cu  0.62145747  0.30108475  0.66443553     0.44170
Cu95       Cu  0.65772114  0.35636173  0.61948905     0.41990
Cu96       Cu  0.59148249  0.32221242  0.59511594     0.43880
N97         N  0.58246132  0.28482015  0.64858103    -0.34750
N98         N  0.57224029  0.29208403  0.62256953    -0.29010
C99         C  0.54753801  0.27736400  0.61751450    -0.05110
C100        C  0.54166431  0.26024483  0.64160272     0.07110
C101        C  0.56419684  0.26548148  0.66102308     0.00900
H102        H  0.53476807  0.27900215  0.59768793     0.08560
H103        H  0.56755675  0.25540396  0.68211394     0.07630
N104        N  0.61159587  0.35567526  0.57266816    -0.36200
N105        N  0.63576192  0.36850225  0.58172594    -0.28380
C106        C  0.64215555  0.39050567  0.56346629    -0.03620
C107        C  0.62104057  0.39135689  0.54193478     0.04990
C108        C  0.60199893  0.36906225  0.54837348     0.03080
H109        H  0.66039521  0.40518676  0.56605670     0.08190
H110        H  0.58217468  0.36354971  0.53681613     0.07020
N111        N  0.30639475  0.86378286  0.33455658    -0.27370
N112        N  0.31905074  0.83966293  0.32544317    -0.35220
C113        C  0.30603100  0.83061150  0.30071136     0.00970
C114        C  0.28422837  0.85011637  0.29371633     0.07000
C115        C  0.28486958  0.87070031  0.31584990    -0.06100
H116        H  0.31103631  0.81043544  0.28968855     0.07670
H117        H  0.27026762  0.88894092  0.31854589     0.08870
Cu118      Cu  0.35154064  0.81866895  0.34849273     0.44170
Cu119      Cu  0.31805681  0.88465311  0.37311732     0.41990
Cu120      Cu  0.36967236  0.84518347  0.42008671     0.43880
N121        N  0.38127905  0.79873612  0.37587321    -0.34750
N122        N  0.38740490  0.80757999  0.40269688    -0.29010
C123        C  0.40720233  0.78944864  0.41457623    -0.05110
C124        C  0.41391238  0.76846955  0.39395651     0.07110
C125        C  0.39714125  0.77507502  0.36976590     0.00900
H126        H  0.41659621  0.79190005  0.43613778     0.08560
H127        H  0.39654200  0.76354323  0.34914126     0.07630
N128        N  0.35168671  0.88527271  0.43006956    -0.36200
N129        N  0.33341529  0.89973306  0.41310638    -0.28380
C130        C  0.32626041  0.92480607  0.42641122    -0.03620
C131        C  0.34095384  0.92636212  0.45284454     0.04990
C132        C  0.35655239  0.90071536  0.45454800     0.03080
H133        H  0.31122698  0.94063948  0.41760616     0.08190
H134        H  0.36955719  0.89308669  0.47266206     0.07020
O135        O  0.50608466  0.72945028  0.37192618    -0.73020
O136        O  0.43790603  0.67284999  0.37239152    -0.74000
O137        O  0.44412553  0.73386504  0.37163230    -0.62620
O138        O  0.49988570  0.66833757  0.37095274    -0.71030
O139        O  0.50078860  0.66701743  0.41949937    -0.70580
O140        O  0.44432677  0.73507567  0.42019539    -0.61840
O141        O  0.43960594  0.67350866  0.42093006    -0.74350
O142        O  0.50559853  0.72892032  0.42049297    -0.73130
Cu143      Cu  0.47200598  0.70112520  0.37001958     1.04560
Cu144      Cu  0.47262478  0.70112362  0.42197670     1.04330
C145        C  0.51630905  0.73809542  0.39653796     0.93180
C146        C  0.42815344  0.66445024  0.39722647     0.92320
C147        C  0.43520953  0.74479884  0.39559759     0.84460
C148        C  0.50919343  0.65720885  0.39467323     0.90730
N149        N  0.66691267  0.84574210  0.37250804    -0.27370
N150        N  0.65497839  0.82386387  0.35801809    -0.35220
C151        C  0.67086211  0.81843087  0.33396222     0.00970
C152        C  0.69369605  0.83805240  0.33304556     0.07000
C153        C  0.69072797  0.85478414  0.35802233    -0.06100
H154        H  0.66619475  0.80123625  0.31853654     0.07670
H155        H  0.70455338  0.87259609  0.36487399     0.08870
Cu156      Cu  0.61727405  0.80255365  0.37079958     0.44170
Cu157      Cu  0.65024162  0.86264539  0.41107185     0.41990
Cu158      Cu  0.59101075  0.82229296  0.44257088     0.43880
N159        N  0.58003040  0.78486504  0.38920222    -0.34750
N160        N  0.57129265  0.79145920  0.41594252    -0.29010
C161        C  0.54733687  0.77596166  0.42218584    -0.05110
C162        C  0.54041870  0.75902314  0.39816543     0.07110
C163        C  0.56154447  0.76520000  0.37754296     0.00900
H164        H  0.53565324  0.77711665  0.44268423     0.08560
H165        H  0.56372394  0.75569109  0.35601814     0.07630
N166        N  0.60998772  0.85805189  0.46265882    -0.36200
N167        N  0.63080806  0.87361835  0.45045971    -0.28380
C168        C  0.63667359  0.89668659  0.46754870    -0.03620
C169        C  0.61905127  0.89546993  0.49225044     0.04990
C170        C  0.60235234  0.87056207  0.48808089     0.03080
H171        H  0.65190516  0.91337055  0.46143087     0.08190
H172        H  0.58550950  0.86221891  0.50229750     0.07020
N173        N  0.31395470  0.53416389  0.46079970    -0.27370
N174        N  0.33503579  0.55084272  0.47098666    -0.35220
C175        C  0.34470715  0.53997049  0.49645327     0.00970
C176        C  0.32938567  0.51469311  0.50249074     0.07000
C177        C  0.30979866  0.51196858  0.47945528    -0.06100
H178        H  0.36154314  0.55009170  0.50938574     0.07670
H179        H  0.29411995  0.49470722  0.47614055     0.08870
Cu180      Cu  0.35193272  0.58555674  0.44801218     0.44170
Cu181      Cu  0.29295383  0.54276537  0.42152098     0.41990
Cu182      Cu  0.32665602  0.59872814  0.37464869     0.43880
N183        N  0.37201184  0.61370273  0.41922634    -0.34750
N184        N  0.36380427  0.61807481  0.39186546    -0.29010
C185        C  0.38276129  0.63653833  0.37905858    -0.05110
C186        C  0.40365549  0.64407662  0.39960023     0.07110
C187        C  0.39606849  0.62926684  0.42470274     0.00900
H188        H  0.38112522  0.64425206  0.35678571     0.08560
H189        H  0.40735409  0.62960597  0.44548407     0.07630
N190        N  0.28824296  0.57679691  0.36494439    -0.36200
N191        N  0.27613202  0.55678165  0.38177526    -0.28380
C192        C  0.25141609  0.54742545  0.36905452    -0.03620
C193        C  0.24793030  0.56195622  0.34277993     0.04990
C194        C  0.27151850  0.58062644  0.34110897     0.03080
H195        H  0.23677095  0.53180887  0.37878097     0.08190
H196        H  0.27626398  0.59582447  0.32371887     0.07020
N197        N  0.64099857  0.54291153  0.33285432    -0.27370
N198        N  0.62645864  0.56552024  0.32278727    -0.35220
C199        C  0.63830650  0.57404556  0.29731674     0.00970
C200        C  0.66126670  0.55565618  0.29088422     0.07000
C201        C  0.66248190  0.53636526  0.31406653    -0.06100
H202        H  0.63166564  0.59317600  0.28535987     0.07670
H203        H  0.67828046  0.51925302  0.31737614     0.08870
Cu204      Cu  0.59280966  0.58480139  0.34567628     0.44170
Cu205      Cu  0.63150240  0.52321136  0.37235613     0.41990
Cu206      Cu  0.57116505  0.55340245  0.41499207     0.43880
N207        N  0.56224537  0.60301218  0.37336216    -0.34750
N208        N  0.55473870  0.59244436  0.39916464    -0.29010
C209        C  0.53517104  0.61048731  0.41160948    -0.05110
C210        C  0.53004677  0.63316880  0.39240782     0.07110
C211        C  0.54745961  0.62762016  0.36846185     0.00900
H212        H  0.52487215  0.60689605  0.43255416     0.08560
H213        H  0.54928361  0.64057738  0.34881859     0.07630
N214        N  0.59344978  0.51552140  0.42562564    -0.36200
N215        N  0.61602482  0.50548975  0.41090899    -0.28380
C216        C  0.62674767  0.48209205  0.42474241    -0.03620
C217        C  0.60981358  0.47648882  0.44925827     0.04990
C218        C  0.58893175  0.49836432  0.44894390     0.03080
H219        H  0.64610590  0.47101605  0.41762158     0.08190
H220        H  0.57179875  0.50188185  0.46474390     0.07020
O221        O  0.00020879  0.66806444  0.17073970    -0.73020
O222        O  0.94459338  0.73348736  0.16922317    -0.74000
O223        O  0.93841608  0.67248339  0.16853075    -0.62620
O224        O  0.00654540  0.72921963  0.16929910    -0.71030
O225        O  0.00596191  0.72837332  0.12073704    -0.70580
O226        O  0.94070183  0.67233305  0.12000996    -0.61840
O227        O  0.94463540  0.73406965  0.12065573    -0.74350
O228        O  0.00182698  0.66643656  0.12222817    -0.73130
Cu229      Cu  0.97244422  0.70083894  0.17115150     1.04560
Cu230      Cu  0.97334059  0.70030254  0.11920464     1.04330
C231        C  0.00979061  0.65671804  0.14724833     0.93180
C232        C  0.93553779  0.74406819  0.14517254     0.92320
C233        C  0.92910176  0.66353373  0.14366171     0.84460
C234        C  0.01666111  0.73776658  0.14464619     0.90730
N235        N  0.17003062  0.84254983  0.16416725    -0.27370
N236        N  0.15697843  0.82231994  0.17997541    -0.35220
C237        C  0.17222143  0.81812401  0.20470804     0.00970
C238        C  0.19579838  0.83683449  0.20464823     0.07000
C239        C  0.19395887  0.85172367  0.17846113    -0.06100
H240        H  0.16654582  0.80246539  0.22135743     0.07670
H241        H  0.20855169  0.86849206  0.17068820     0.08870
Cu242      Cu  0.11853471  0.80170150  0.16828929     0.44170
Cu243      Cu  0.15437718  0.85769126  0.12446483     0.41990
Cu244      Cu  0.09116009  0.82077729  0.09678832     0.43880
N245        N  0.08059550  0.78442014  0.15090427    -0.34750
N246        N  0.07139588  0.79084714  0.12427516    -0.29010
C247        C  0.04720965  0.77549691  0.11854981    -0.05110
C248        C  0.04061737  0.75882738  0.14279152     0.07110
C249        C  0.06218398  0.76500680  0.16301693     0.00900
H250        H  0.03526243  0.77641142  0.09816497     0.08560
H251        H  0.06480691  0.75553425  0.18449257     0.07630
N252        N  0.11136738  0.85471291  0.07493519    -0.36200
N253        N  0.13419444  0.86872097  0.08546856    -0.28380
C254        C  0.14068670  0.89100536  0.06763191    -0.03620
C255        C  0.12127604  0.89081685  0.04435635     0.04990
C256        C  0.10285553  0.86757723  0.04996645     0.03080
H257        H  0.15726859  0.90696749  0.07238549     0.08190
H258        H  0.08412222  0.86095125  0.03722050     0.07020
N259        N  0.11153580  0.50092845  0.13521149    -0.27370
N260        N  0.09382776  0.51491853  0.11730168    -0.35220
C261        C  0.09069652  0.49928414  0.09267702     0.00970
C262        C  0.10729778  0.47424809  0.09496585     0.07000
C263        C  0.11991372  0.47593622  0.12250448    -0.06100
H264        H  0.07751693  0.50588896  0.07423256     0.07670
H265        H  0.13373253  0.46015787  0.13304701     0.08870
Cu266      Cu  0.07409017  0.55443445  0.12656450     0.44170
Cu267      Cu  0.12487552  0.51660729  0.17561067     0.41990
Cu268      Cu  0.08749368  0.58020955  0.19987366     0.43880
N269        N  0.05570261  0.59217168  0.14315932    -0.34750
N270        N  0.06004753  0.60063842  0.17046095    -0.29010
C271        C  0.04475209  0.62490953  0.17546312    -0.05110
C272        C  0.03019139  0.63234062  0.15009915     0.07110
C273        C  0.03757874  0.61113766  0.12992697     0.00900
H274        H  0.04429520  0.63635806  0.19613609     0.08560
H275        H  0.02983768  0.60919926  0.10766435     0.07630
N276        N  0.12126968  0.56149096  0.22310432    -0.36200
N277        N  0.13571277  0.53854183  0.21373510    -0.28380
C278        C  0.15811173  0.53348596  0.23196705    -0.03620
C279        C  0.15793199  0.55438021  0.25390279     0.04990
C280        C  0.13386396  0.57150664  0.24768812     0.03080
H281        H  0.17393301  0.51634326  0.22896084     0.08190
H282        H  0.12580261  0.58989065  0.25984874     0.07020
N283        N  0.80630223  0.86329800  0.20494901    -0.27370
N284        N  0.81935046  0.83970345  0.21486624    -0.35220
C285        C  0.80612957  0.83106388  0.23961477     0.00970
C286        C  0.78371582  0.85020985  0.24561341     0.07000
C287        C  0.78427059  0.87018922  0.22301375    -0.06100
H288        H  0.81141298  0.81138428  0.25137703     0.07670
H289        H  0.76926134  0.88796467  0.21954514     0.08870
Cu290      Cu  0.85229812  0.81858734  0.19240082     0.44170
Cu291      Cu  0.81810374  0.88362925  0.16624932     0.41990
Cu292      Cu  0.86945581  0.84378594  0.11985086     0.43880
N293        N  0.88173045  0.79823851  0.16482563    -0.34750
N294        N  0.88741305  0.80658900  0.13777106    -0.29010
C295        C  0.90705284  0.78828876  0.12589167    -0.05110
C296        C  0.91413740  0.76767986  0.14670783     0.07110
C297        C  0.89774008  0.77469773  0.17104056     0.00900
H298        H  0.91609949  0.79039559  0.10417354     0.08560
H299        H  0.89751617  0.76352910  0.19184814     0.07630
N300        N  0.85159971  0.88376704  0.10939097    -0.36200
N301        N  0.83346765  0.89845493  0.12627471    -0.28380
C302        C  0.82642002  0.92346244  0.11284910    -0.03620
C303        C  0.84099565  0.92472388  0.08636532     0.04990
C304        C  0.85644684  0.89896255  0.08480247     0.03080
H305        H  0.81152343  0.93944782  0.12160521     0.08190
H306        H  0.86932198  0.89106525  0.06673809     0.07020
N307        N  0.77336621  0.56189877  0.15958046    -0.27370
N308        N  0.78640801  0.58237551  0.17515676    -0.35220
C309        C  0.77130206  0.58688944  0.19984835     0.00970
C310        C  0.74787441  0.56803816  0.20016473     0.07000
C311        C  0.74958287  0.55279486  0.17411048    -0.06100
H312        H  0.77705221  0.60282682  0.21624209     0.07670
H313        H  0.73505326  0.53580797  0.16663289     0.08870
Cu314      Cu  0.82504544  0.60255604  0.16396100     0.44170
Cu315      Cu  0.78896589  0.54646991  0.11988561     0.41990
Cu316      Cu  0.85347656  0.58263898  0.09373425     0.43520
N317        N  0.86394460  0.61861644  0.14804612    -0.34750
N318        N  0.87372701  0.61175168  0.12176757    -0.29010
C319        C  0.89856226  0.62625639  0.11682732    -0.05110
C320        C  0.90491589  0.64284358  0.14124595     0.07110
C321        C  0.88255978  0.63749879  0.16074353     0.00900
H322        H  0.91100321  0.62496980  0.09679346     0.08560
H323        H  0.87950892  0.64726771  0.18204347     0.07630
N324        N  0.83276066  0.54954688  0.07104616    -0.36200
N325        N  0.80960054  0.53564721  0.08100639    -0.28380
C326        C  0.80326052  0.51355311  0.06276381    -0.03620
C327        C  0.82311244  0.51394729  0.04007549     0.04990
C328        C  0.84159670  0.53688374  0.04606879     0.03080
H329        H  0.78607695  0.49783486  0.06624127     0.08190
H330        H  0.86092042  0.54296193  0.03401391     0.07020
O331        O  0.94530858  0.23528413  0.91797430    -0.73020
O332        O  0.00212137  0.16771641  0.91845981    -0.74000
O333        O  0.00641251  0.22942729  0.91934948    -0.62620
O334        O  0.94091589  0.17340773  0.91865032    -0.71030
O335        O  0.94035546  0.17277012  0.87008097    -0.70580
O336        O  0.00788790  0.23007280  0.87080314    -0.61840
O337        O  0.00228875  0.16890913  0.86989696    -0.74350
O338        O  0.94586579  0.23397804  0.86941078    -0.73130
Cu339      Cu  0.97366026  0.20146007  0.92030322     1.04560
Cu340      Cu  0.97410400  0.20144093  0.86833710     1.04330
C341        C  0.93667979  0.24503739  0.89322018     0.93180
C342        C  0.01117986  0.15795181  0.89386412     0.92320
C343        C  0.01756559  0.23869587  0.89563332     0.84460
C344        C  0.93029668  0.16403780  0.89467115     0.90730
N345        N  0.13232478  0.36950662  0.96007032    -0.27370
N346        N  0.10873892  0.35542221  0.96853954    -0.35220
C347        C  0.09837639  0.36769416  0.99306782     0.00970
C348        C  0.11610526  0.39093417  0.00027922     0.07000
C349        C  0.13764748  0.39122360  0.97908498    -0.06100
H350        H  0.07944890  0.36000753  0.00476620     0.07670
H351        H  0.15546822  0.40651211  0.97726133     0.08870
Cu352      Cu  0.09054392  0.32153015  0.94527202     0.44170
Cu353      Cu  0.15478568  0.35875067  0.92219644     0.41990
Cu354      Cu  0.11940320  0.30418281  0.87450177     0.43880
N355        N  0.07171685  0.29180992  0.91719774    -0.34750
N356        N  0.08131843  0.28584206  0.89063022    -0.29010
C357        C  0.06322079  0.26634621  0.87803034    -0.05110
C358        C  0.04148136  0.25975123  0.89793329     0.07110
C359        C  0.04764933  0.27620915  0.92243012     0.00900
H360        H  0.06611571  0.25715996  0.85645172     0.08560
H361        H  0.03546379  0.27686747  0.94265588     0.07630
N362        N  0.15854443  0.32499455  0.86532974    -0.36200
N363        N  0.17145169  0.34429503  0.88254219    -0.28380
C364        C  0.19622804  0.35331673  0.86971979    -0.03620
C365        C  0.19886977  0.33911760  0.84324887     0.04990
C366        C  0.17472190  0.32136808  0.84111297     0.03080
H367        H  0.21090096  0.36941321  0.87874408     0.08190
H368        H  0.16917250  0.30706727  0.82316078     0.07020
N369        N  0.14264066  0.04064457  0.83648888    -0.27370
N370        N  0.12896947  0.06367480  0.82608662    -0.35220
C371        C  0.14239893  0.07262237  0.80158146     0.00970
C372        C  0.16587445  0.05456806  0.79656483     0.07000
C373        C  0.16529730  0.03440506  0.81898133    -0.06100
H374        H  0.13615140  0.09147443  0.78893447     0.07670
H375        H  0.18025404  0.01659599  0.82242284     0.08870
Cu376      Cu  0.09453243  0.08340780  0.84732693     0.44170
Cu377      Cu  0.13027683  0.01977078  0.87467504     0.41990
Cu378      Cu  0.07586762  0.05730269  0.91930440     0.43880
N379        N  0.06450968  0.10331548  0.87440374    -0.34750
N380        N  0.05831526  0.09472612  0.90127028    -0.29010
C381        C  0.03872378  0.11315621  0.91300790    -0.05110
C382        C  0.03223649  0.13407021  0.89228868     0.07110
C383        C  0.04889259  0.12710634  0.86815602     0.00900
H384        H  0.02937271  0.11100487  0.93459203     0.08560
H385        H  0.04967129  0.13855141  0.84751573     0.07630
N386        N  0.09453565  0.01769373  0.93008282    -0.36200
N387        N  0.11400231  0.00398655  0.91387193    -0.28380
C388        C  0.12165087  0.97920133  0.92737889    -0.03620
C389        C  0.10605016  0.97700549  0.95317866     0.04990
C390        C  0.08933586  0.00199875  0.95429850     0.03080
H391        H  0.13767817  0.96403574  0.91918041     0.08190
H392        H  0.07536289  0.00904732  0.97190451     0.07020
N393        N  0.77797315  0.05783704  0.87536063    -0.27370
N394        N  0.79150889  0.07686148  0.85849626    -0.35220
C395        C  0.77580435  0.08073218  0.83398526     0.00970
C396        C  0.75139029  0.06309909  0.83530692     0.07000
C397        C  0.75333736  0.04916162  0.86204669    -0.06100
H398        H  0.78177966  0.09525973  0.81640135     0.07670
H399        H  0.73773913  0.03442670  0.87166855     0.08870
Cu400      Cu  0.83040431  0.09731680  0.86935442     0.44170
Cu401      Cu  0.79312220  0.04403963  0.91567344     0.41990
Cu402      Cu  0.85686626  0.08005252  0.94191681     0.43880
N403        N  0.86758608  0.11580038  0.88741312    -0.34750
N404        N  0.87631414  0.10998378  0.91434971    -0.29010
C405        C  0.89987701  0.12609302  0.92052241    -0.05110
C406        C  0.90658566  0.14268247  0.89629173     0.07110
C407        C  0.88573920  0.13562695  0.87556591     0.00900
H408        H  0.91135264  0.12569480  0.94119562     0.08560
H409        H  0.88345534  0.14472489  0.85388781     0.07630
N410        N  0.83658009  0.04682110  0.96459114    -0.36200
N411        N  0.81320461  0.03326837  0.95471031    -0.28380
C412        C  0.80645874  0.01144217  0.97301053    -0.03620
C413        C  0.82636534  0.01147223  0.99582257     0.04990
C414        C  0.84530753  0.03407033  0.98953432     0.03080
H415        H  0.78938631  0.99579113  0.96891002     0.08190
H416        H  0.86452346  0.04027034  0.00176207     0.07020
N417        N  0.80572326  0.36232253  0.83341469    -0.27370
N418        N  0.81914127  0.33877141  0.82389314    -0.35220
C419        C  0.80687219  0.33010577  0.79865123     0.00970
C420        C  0.78483843  0.34933924  0.79162414     0.07000
C421        C  0.78451481  0.36930282  0.81436129    -0.06100
H422        H  0.81265182  0.31037117  0.78722910     0.07670
H423        H  0.76957384  0.38725690  0.81712166     0.08870
Cu424      Cu  0.85227619  0.31824949  0.84637847     0.44170
Cu425      Cu  0.81640019  0.38280254  0.87255737     0.41990
Cu426      Cu  0.87696809  0.34985907  0.91339728     0.43880
N427        N  0.88337608  0.29930801  0.87286792    -0.34750
N428        N  0.89208988  0.31024382  0.89814031    -0.29010
C429        C  0.91181621  0.29216577  0.91021005    -0.05110
C430        C  0.91580817  0.26903675  0.89126207     0.07110
C431        C  0.89756501  0.27436001  0.86784696     0.00900
H432        H  0.92307495  0.29608754  0.93062795     0.08560
H433        H  0.89487367  0.26111029  0.84847094     0.07630
N434        N  0.85581598  0.38780353  0.92536820    -0.36200
N435        N  0.83320414  0.39906546  0.91156311    -0.28380
C436        C  0.82360345  0.42213773  0.92683985    -0.03620
C437        C  0.84091834  0.42562219  0.95154212     0.04990
C438        C  0.86145153  0.40364475  0.94939640     0.03080
H439        H  0.80495733  0.43511554  0.92066740     0.08190
H440        H  0.87945591  0.39923559  0.96381292     0.07020
C441        C  0.83795292  0.46449257  0.02565681    -0.20380
C442        C  0.82711125  0.49161147  0.01734670    -0.06950
C443        C  0.82081694  0.49709785  0.98773224     0.13920
C444        C  0.82596407  0.47528654  0.96686696    -0.20440
C445        C  0.83734647  0.44802065  0.97488635    -0.06950
C446        C  0.84327794  0.44259271  0.00493898     0.13910
C447        C  0.85434586  0.41380826  0.01597592    -0.23780
H448        H  0.84260341  0.46058891  0.04856686     0.15200
H449        H  0.82116535  0.47968306  0.94410403     0.15220
C450        C  0.80809146  0.52574173  0.97829650    -0.23730
H451        H  0.85349765  0.41251893  0.04021729     0.05440
H452        H  0.87748544  0.41101722  0.00981891     0.08660
H453        H  0.84080775  0.39577398  0.00724922     0.08660
H454        H  0.82337971  0.54363770  0.98376937     0.08650
H455        H  0.78711288  0.52943440  0.98976468     0.08650
H456        H  0.80390204  0.52632312  0.95437447     0.05420
C457        C  0.85751114  0.97939603  0.02603122    -0.20380
C458        C  0.82951111  0.98976493  0.01956051    -0.06950
C459        C  0.80560738  0.97978504  0.03627990     0.13920
C460        C  0.81021327  0.95870663  0.05796243    -0.20440
C461        C  0.83803521  0.94740622  0.06355531    -0.06950
C462        C  0.86215603  0.95847641  0.04784957     0.13910
C463        C  0.89297828  0.94949329  0.05468145    -0.23780
H464        H  0.87592490  0.98749470  0.01366716     0.15200
H465        H  0.79182587  0.95072245  0.07043974     0.15220
C466        C  0.77542661  0.99202874  0.03242233    -0.23730
H467        H  0.90907567  0.96285747  0.04253719     0.05440
H468        H  0.89663544  0.92661844  0.04819892     0.08660
H469        H  0.89739604  0.95228153  0.07840361     0.08660
H470        H  0.76634066  0.98554677  0.01095269     0.08650
H471        H  0.77609394  0.01608795  0.03416130     0.08650
H472        H  0.76023607  0.98385263  0.04942196     0.05420
C473        C  0.13764688  0.41718965  0.04234502    -0.20380
C474        C  0.11302663  0.41122735  0.02521749    -0.06950
C475        C  0.08657906  0.42562086  0.03145013     0.13920
C476        C  0.08542083  0.44519769  0.05494866    -0.20440
C477        C  0.10998842  0.45117620  0.07230042    -0.06950
C478        C  0.13656031  0.43686287  0.06584498     0.13910
C479        C  0.16424372  0.44284182  0.08252083    -0.23780
H480        H  0.15794280  0.40630328  0.03725301     0.15200
H481        H  0.06509741  0.45620038  0.05961430     0.15220
C482        C  0.05991032  0.42183397  0.01254645    -0.23730
H483        H  0.18333205  0.43224708  0.07212909     0.05440
H484        H  0.16257790  0.43392360  0.10494205     0.08660
H485        H  0.16861790  0.46655956  0.08323455     0.08660
H486        H  0.05131735  0.39944300  0.01456809     0.08650
H487        H  0.06538373  0.42645423  0.98936200     0.08650
H488        H  0.04215058  0.43684390  0.01909836     0.05420
C489        C  0.08989754  0.92081520  0.01211985    -0.20380
C490        C  0.11813739  0.91258960  0.02055406    -0.06950
C491        C  0.14226627  0.92456931  0.00548210     0.13920
C492        C  0.13746023  0.94532331  0.98350918    -0.20440
C493        C  0.10928486  0.95440843  0.97601738    -0.06950
C494        C  0.08512148  0.94138590  0.98998320     0.13910
C495        C  0.05426456  0.94793559  0.98086427    -0.23780
H496        H  0.07133345  0.91127378  0.02313277     0.15200
H497        H  0.15593952  0.95484999  0.97231920     0.15220
C498        C  0.17306432  0.91490902  0.01134744    -0.23730
H499        H  0.03838151  0.93361002  0.99215403     0.05440
H500        H  0.05175287  0.94445333  0.95695323     0.08660
H501        H  0.04852503  0.97060402  0.98650229     0.08660
H502        H  0.17448074  0.89085200  0.01023885     0.08650
H503        H  0.18039362  0.92272154  0.03304014     0.08650
H504        H  0.18848799  0.92389956  0.99498537     0.05420
C505        C  0.71242769  0.55723277  0.27439350    -0.20380
C506        C  0.68281393  0.55851073  0.26703482    -0.06950
C507        C  0.67464918  0.56172504  0.23736731     0.13920
C508        C  0.69641266  0.56455678  0.21598573    -0.20440
C509        C  0.72601515  0.56444021  0.22356960    -0.06950
C510        C  0.73414987  0.56013859  0.25309865     0.13910
C511        C  0.76556681  0.55730447  0.26227441    -0.23780
H512        H  0.71862428  0.55424001  0.29706527     0.15200
H513        H  0.69030931  0.56718751  0.19323719     0.15220
C514        C  0.64321331  0.56101464  0.22792410    -0.23730
H515        H  0.76761872  0.55128857  0.28570327     0.05440
H516        H  0.77713106  0.57821997  0.25935331     0.08660
H517        H  0.77635733  0.54010968  0.24914111     0.08660
H518        H  0.63147425  0.58011829  0.23671900     0.08650
H519        H  0.63273205  0.54074888  0.23584990     0.08650
H520        H  0.64104030  0.56159215  0.20373258     0.05420
C521        C  0.19158249  0.53165346  0.28959276    -0.20380
C522        C  0.17959487  0.55727130  0.27801838    -0.06950
C523        C  0.19022587  0.58444439  0.28819469     0.13920
C524        C  0.21211834  0.58503763  0.30967106    -0.20440
C525        C  0.22384274  0.55941518  0.32130500    -0.06950
C526        C  0.21360976  0.53231352  0.31090083     0.13910
C527        C  0.22679084  0.50399890  0.32080665    -0.23780
H528        H  0.18381457  0.51082535  0.28170539     0.15200
H529        H  0.22027968  0.60578113  0.31742998     0.15220
C530        C  0.17992625  0.61300057  0.27586679    -0.23730
H531        H  0.21804258  0.48525400  0.30822693     0.05440
H532        H  0.22169851  0.50006631  0.34412909     0.08660
H533        H  0.25074615  0.50449915  0.31759492     0.08660
H534        H  0.15735188  0.61739211  0.28306249     0.08650
H535        H  0.18129454  0.61271219  0.25162727     0.08650
H536        H  0.19342893  0.63146462  0.28375604     0.05420
C537        C  0.74565965  0.84243623  0.31907773    -0.20380
C538        C  0.71639950  0.84095443  0.31029584    -0.06950
C539        C  0.70938972  0.84351866  0.28026226     0.13920
C540        C  0.73187666  0.84681961  0.25978153    -0.20440
C541        C  0.76115128  0.84733920  0.26846680    -0.06950
C542        C  0.76816750  0.84541623  0.29850699     0.13910
C543        C  0.79918894  0.84757389  0.30904839    -0.23780
H544        H  0.75091950  0.84103162  0.34214725     0.15200
H545        H  0.72660910  0.84867985  0.23675135     0.15220
C546        C  0.67830197  0.84400108  0.26966466    -0.23730
H547        H  0.80054569  0.84723978  0.33330312     0.05440
H548        H  0.80902739  0.86822394  0.30129308     0.08660
H549        H  0.81205502  0.82898117  0.30069861     0.08660
H550        H  0.66598248  0.86120342  0.28134187     0.08650
H551        H  0.66785967  0.82261637  0.27336527     0.08650
H552        H  0.67693780  0.84858504  0.24586036     0.05420
C553        C  0.24754542  0.83923525  0.21976247    -0.20380
C554        C  0.21808890  0.84055950  0.22768490    -0.06950
C555        C  0.21054031  0.84633691  0.25709499     0.13920
C556        C  0.23267914  0.84968085  0.27799634    -0.20440
C557        C  0.26212395  0.84722377  0.27032337    -0.06950
C558        C  0.26970799  0.84234940  0.24074009     0.13910
C559        C  0.30100784  0.84152458  0.23093005    -0.23780
H560        H  0.25320837  0.83543339  0.19707341     0.15200
H561        H  0.22695600  0.85385987  0.30059524     0.15220
C562        C  0.17931638  0.85015571  0.26644959    -0.23730
H563        H  0.30279894  0.83964109  0.20677691     0.05440
H564        H  0.31225433  0.82251785  0.24054302     0.08660
H565        H  0.31226583  0.86180545  0.23773483     0.08660
H566        H  0.16724032  0.82944281  0.26402776     0.08650
H567        H  0.16879870  0.86724987  0.25297606     0.08650
H568        H  0.17767014  0.85680606  0.28974577     0.05420
C569        C  0.75029415  0.33869420  0.71649540    -0.20380
C570        C  0.72064746  0.34038070  0.72353777    -0.06950
C571        C  0.71231606  0.34668130  0.75262289     0.13920
C572        C  0.73385017  0.34983138  0.77416757    -0.20440
C573        C  0.76347636  0.34679591  0.76746103    -0.06950
C574        C  0.77187393  0.34172225  0.73810400     0.13910
C575        C  0.80341559  0.34059300  0.72913102    -0.23780
H576        H  0.75655718  0.33456932  0.69402345     0.15200
H577        H  0.72747368  0.35425959  0.79653836     0.15220
C578        C  0.68090235  0.35125056  0.76095938    -0.23730
H579        H  0.80581979  0.33899970  0.70501108     0.05440
H580        H  0.81415064  0.32129092  0.73871124     0.08660
H581        H  0.81476805  0.36063200  0.73648081     0.08660
H582        H  0.66847988  0.33074595  0.75855227     0.08650
H583        H  0.67113233  0.36830478  0.74687866     0.08650
H584        H  0.67869530  0.35835178  0.78407284     0.05420
C585        C  0.62831005  0.40614017  0.49052325    -0.20380
C586        C  0.61807623  0.41298822  0.51845327    -0.06950
C587        C  0.60506310  0.44015317  0.52359152     0.13920
C588        C  0.60322858  0.46030562  0.50070384    -0.20440
C589        C  0.61370906  0.45392161  0.47245711    -0.06950
C590        C  0.62632816  0.42611866  0.46735803     0.13910
C591        C  0.63719342  0.41655554  0.43780809    -0.23780
H592        H  0.63805047  0.38498832  0.48689583     0.15200
H593        H  0.59365322  0.48132174  0.50516300     0.15220
C594        C  0.59277065  0.44772070  0.55317265    -0.23730
H595        H  0.64208328  0.39292386  0.43735280     0.05440
H596        H  0.65784503  0.42786866  0.43262254     0.08660
H597        H  0.62046413  0.42071279  0.42079045     0.08660
H598        H  0.61030016  0.44710596  0.56988348     0.08650
H599        H  0.57555666  0.43183391  0.55913432     0.08650
H600        H  0.58297466  0.46977325  0.55341954     0.05420
C601        C  0.24841240  0.32869726  0.82501123    -0.20380
C602        C  0.22183420  0.34292795  0.82115305    -0.06950
C603        C  0.21719036  0.35987344  0.79599793     0.13920
C604        C  0.23899469  0.36141802  0.77460572    -0.20440
C605        C  0.26560541  0.34653517  0.77773196    -0.06950
C606        C  0.27043754  0.33019795  0.80372508     0.13910
C607        C  0.29862492  0.31469130  0.80998421    -0.23780
H608        H  0.25173193  0.31592545  0.84464199     0.15200
H609        H  0.23487792  0.37404054  0.75509212     0.15220
C610        C  0.18929295  0.37657398  0.79189633    -0.23730
H611        H  0.29991001  0.30747126  0.83312748     0.05440
H612        H  0.31740131  0.32936177  0.80601436     0.08660
H613        H  0.30018209  0.29481247  0.79640985     0.08660
H614        H  0.18637812  0.39202623  0.81034296     0.08650
H615        H  0.17055430  0.36134130  0.79125110     0.08650
H616        H  0.18933977  0.38921804  0.77122390     0.05420
C617        C  0.30761523  0.48065328  0.53843010    -0.20380
C618        C  0.33276169  0.49436147  0.52759604    -0.06950
C619        C  0.36022477  0.48675207  0.53965260     0.13920
C620        C  0.36154598  0.46600221  0.56210499    -0.20440
C621        C  0.33638204  0.45268472  0.57300808    -0.06950
C622        C  0.30905889  0.45987938  0.56085510     0.13910
C623        C  0.28155398  0.44469059  0.57030646    -0.23780
H624        H  0.28660553  0.48608007  0.52913102     0.15200
H625        H  0.38248634  0.46001144  0.57125821     0.15220
C626        C  0.38848287  0.49910123  0.52842786    -0.23730
H627        H  0.26248683  0.45163662  0.55709901     0.05440
H628        H  0.27675385  0.44979384  0.59348925     0.08660
H629        H  0.28405279  0.42083726  0.56760413     0.08660
H630        H  0.39055864  0.52218287  0.53496467     0.08650
H631        H  0.38964924  0.49682502  0.50428503     0.08650
H632        H  0.40760466  0.48763742  0.53779844     0.05420
C633        C  0.71797656  0.08689676  0.80032109    -0.20380
C634        C  0.72792125  0.06106827  0.81312891    -0.06950
C635        C  0.71661038  0.03418457  0.80320647     0.13920
C636        C  0.69540510  0.03398911  0.78106126    -0.20440
C637        C  0.68516841  0.05984763  0.76848216    -0.06950
C638        C  0.69681967  0.08672556  0.77814673     0.13910
C639        C  0.68840963  0.11525533  0.76436841    -0.23780
H640        H  0.72696063  0.10744250  0.80768360     0.15200
H641        H  0.68680475  0.01340055  0.77338300     0.15220
C642        C  0.72772094  0.00554505  0.81460840    -0.23730
H643        H  0.70219531  0.13342252  0.77245941     0.05440
H644        H  0.66562571  0.12074705  0.76993118     0.08660
H645        H  0.69110231  0.11404634  0.74026901     0.08660
H646        H  0.72141059  0.00271269  0.83779371     0.08650
H647        H  0.75177558  0.00458937  0.81245336     0.08650
H648        H  0.71843673  0.98689330  0.80227646     0.05420
C649        C  0.63526463  0.95291224  0.55116412    -0.20380
C650        C  0.60811721  0.95504544  0.56482235    -0.06950
C651        C  0.58505522  0.93712284  0.55536651     0.13920
C652        C  0.58940119  0.91834553  0.53157298    -0.20440
C653        C  0.61637319  0.91662323  0.51700148    -0.06950
C654        C  0.63979767  0.93411569  0.52735668     0.13910
C655        C  0.66984086  0.93319014  0.51423679    -0.23780
H656        H  0.65291676  0.96664444  0.55879120     0.15200
H657        H  0.57131446  0.90513045  0.52420885     0.15220
C658        C  0.55615797  0.93692826  0.57097150    -0.23730
H659        H  0.68593647  0.94498471  0.52800281     0.05440
H660        H  0.66978286  0.94416179  0.49268796     0.08660
H661        H  0.67743940  0.91039230  0.51227836     0.08660
H662        H  0.54544820  0.95839129  0.56895372     0.08650
H663        H  0.55953743  0.93180537  0.59446725     0.08650
H664        H  0.54111564  0.92037414  0.56172266     0.05420
C665        C  0.23668699  0.06398518  0.75497302    -0.20380
C666        C  0.22690701  0.06317111  0.72587398    -0.06950
C667        C  0.19676178  0.05986057  0.72017842     0.13920
C668        C  0.17739438  0.05705175  0.74377064    -0.20440
C669        C  0.18737952  0.05716599  0.77275458    -0.06950
C670        C  0.21734532  0.06103279  0.77847417     0.13910
C671        C  0.22891043  0.06332371  0.80926057    -0.23780
H672        H  0.25970443  0.06688674  0.75937776     0.15200
H673        H  0.15426960  0.05462929  0.73960933     0.15220
C674        C  0.18458958  0.06051391  0.68955724    -0.23730
H675        H  0.25262924  0.06805551  0.80960643     0.05440
H676        H  0.22545765  0.04257970  0.82104287     0.08660
H677        H  0.21761911  0.08116657  0.82102070     0.08660
H678        H  0.19174070  0.04108935  0.67721091     0.08650
H679        H  0.19187765  0.08053296  0.67817701     0.08650
H680        H  0.16040573  0.06036616  0.68956134     0.05420
C681        C  0.31004114  0.95969957  0.48187064    -0.20380
C682        C  0.33798404  0.94912178  0.47559229    -0.06950
C683        C  0.36222312  0.96079614  0.49072785     0.13920
C684        C  0.35763233  0.98150221  0.51279948    -0.20440
C685        C  0.32954422  0.99105658  0.52006665    -0.06950
C686        C  0.30546789  0.98055805  0.50382098     0.13910
C687        C  0.27509051  0.99199753  0.50848761    -0.23780
H688        H  0.29155730  0.95126555  0.46977396     0.15200
H689        H  0.37615889  0.99004269  0.52475070     0.15220
C690        C  0.39305600  0.95264289  0.48300406    -0.23730
H691        H  0.25969090  0.98355290  0.49175286     0.05440
H692        H  0.27509882  0.01607648  0.50697938     0.08660
H693        H  0.26671133  0.98513154  0.53008571     0.08660
H694        H  0.39673999  0.95584047  0.45922477     0.08650
H695        H  0.39742549  0.92976605  0.48897244     0.08650
H696        H  0.40915686  0.96622974  0.49496574     0.05420
loop_ 
_geom_bond_atom_site_label_1 
_geom_bond_atom_site_label_2 
_geom_bond_distance 
_geom_bond_site_symmetry_2 
_ccdc_geom_bond_type 
N1            N2   1.322       .  A
N1            C5   1.345       .  A
N1           Cu9   2.071       .  S
N2            C3   1.343       .  A
N2           Cu8   2.076       .  S
C3            C4   1.385       .  A
C3            H6   1.082       .  S
C4            C5   1.385       .  A
C4          C666   1.482       .  S
C5            H7   1.080       .  S
Cu8          N11   2.075       .  S
Cu9          N19   2.070       .  S
Cu10         N12   2.071       .  S
Cu10         N18   2.070       .  S
N11          N12   1.322       .  A
N11          C15   1.350       .  A
N12          C13   1.340       .  A
C13          C14   1.381       .  A
C13          H16   1.082       .  S
C14          C15   1.384       .  A
C14          C38   1.467       .  S
C15          H17   1.081       .  S
N18          N19   1.320       .  A
N18          C22   1.344       .  A
N19          C20   1.344       .  A
C20          C21   1.386       .  A
C20          H23   1.080   1_545  S
C21          C22   1.386       .  A
C21         C685   1.483   1_545  S
C22          H24   1.082       .  S
O25         Cu33   1.978       .  S
O25          C35   1.273       .  A
O26         Cu33   1.977       .  S
O26          C36   1.273       .  A
O27         Cu33   2.038       .  S
O27          C37   1.281       .  A
O28         Cu33   2.038       .  S
O28          C38   1.281       .  A
O29         Cu34   1.979       .  S
O29          C38   1.273       .  A
O30         Cu34   1.978       .  S
O30          C37   1.273       .  A
O31         Cu34   2.038       .  S
O31          C36   1.281       .  A
O32         Cu34   2.038       .  S
O32          C35   1.281       .  A
Cu33        Cu34   2.376       .  S
C35          C76   1.467       .  S
C36          C52   1.467       .  S
C37         C100   1.467       .  S
N39          N40   1.320       .  A
N39          C43   1.345       .  A
N39         Cu47   2.076       .  S
N40          C41   1.343       .  A
N40         Cu46   2.066       .  S
C41          C42   1.385       .  A
C41          H44   1.079       .  S
C42          C43   1.387       .  A
C42         C637   1.484       .  S
C43          H45   1.082       .  S
Cu46         N49   2.066       .  S
Cu47         N57   2.077       .  S
Cu48         N50   2.073       .  S
Cu48         N56   2.075       .  S
N49          N50   1.321       .  A
N49          C53   1.340       .  A
N50          C51   1.350       .  A
C51          C52   1.384       .  A
C51          H54   1.081       .  S
C52          C53   1.381       .  A
C53          H55   1.082       .  S
N56          N57   1.324       .  A
N56          C60   1.344   1_545  A
N57          C58   1.346   1_545  A
C58          C59   1.383       .  A
C58          H61   1.082       .  S
C59          C60   1.382       .  A
C59         C650   1.476       .  S
C60          H62   1.081   1_565  S
N63          N64   1.324       .  A
N63          C67   1.346       .  A
N63         Cu71   2.082       .  S
N64          C65   1.344       .  A
N64         Cu70   2.076       .  S
C65          C66   1.381       .  A
C65          H68   1.082       .  S
C66          C67   1.384       .  A
C66         C621   1.479       .  S
C67          H69   1.081       .  S
Cu70         N73   2.074       .  S
Cu71         N81   2.080       .  S
Cu72         N74   2.065       .  S
Cu72         N80   2.065       .  S
N73          N74   1.321       .  A
N73          C77   1.350       .  A
N74          C75   1.340       .  A
C75          C76   1.381       .  A
C75          H78   1.082       .  S
C76          C77   1.385       .  A
C77          H79   1.081       .  S
N80          N81   1.319       .  A
N80          C84   1.343       .  A
N81          C82   1.345       .  A
C82          C83   1.393       .  A
C82          H85   1.082       .  S
C83          C84   1.389       .  A
C83         C605   1.496       .  S
C84          H86   1.075       .  S
N87          N88   1.323       .  A
N87          C91   1.346       .  A
N87         Cu95   2.077       .  S
N88          C89   1.343       .  A
N88         Cu94   2.071       .  S
C89          C90   1.382       .  A
C89          H92   1.081       .  S
C90          C91   1.383       .  A
C90         C570   1.477       .  S
C91          H93   1.082       .  S
Cu94         N97   2.070       .  S
Cu95        N105   2.076       .  S
Cu96         N98   2.070       .  S
Cu96        N104   2.069       .  S
N97          N98   1.321       .  A
N97         C101   1.349       .  A
N98          C99   1.340       .  A
C99         C100   1.382       .  A
C99         H102   1.082       .  S
C100        C101   1.384       .  A
C101        H103   1.081       .  S
N104        N105   1.322       .  A
N104        C108   1.345       .  A
N105        C106   1.346       .  A
C106        C107   1.382       .  A
C106        H109   1.082       .  S
C107        C108   1.380       .  A
C107        C586   1.471       .  S
C108        H110   1.082       .  S
N111        N112   1.321       .  A
N111        C115   1.345       .  A
N111       Cu119   2.076       .  S
N112        C113   1.344       .  A
N112       Cu118   2.067       .  S
C113        C114   1.383       .  A
C113        H116   1.081       .  S
C114        C115   1.386       .  A
C114        C557   1.479       .  S
C115        H117   1.082       .  S
Cu118       N121   2.068       .  S
Cu119       N129   2.077       .  S
Cu120       N122   2.072       .  S
Cu120       N128   2.073       .  S
N121        N122   1.321       .  A
N121        C125   1.340       .  A
N122        C123   1.349       .  A
C123        C124   1.384       .  A
C123        H126   1.081       .  S
C124        C125   1.381       .  A
C124        C147   1.467       .  S
C125        H127   1.082       .  S
N128        N129   1.323       .  A
N128        C132   1.343       .  A
N129        C130   1.345       .  A
C130        C131   1.385       .  A
C130        H133   1.082       .  S
C131        C132   1.384       .  A
C131        C682   1.482       .  S
C132        H134   1.080       .  S
O135       Cu143   2.038       .  S
O135        C145   1.281       .  A
O136       Cu143   2.038       .  S
O136        C146   1.281       .  A
O137       Cu143   1.980       .  S
O137        C147   1.273       .  A
O138       Cu143   1.981       .  S
O138        C148   1.274       .  A
O139       Cu144   2.039       .  S
O139        C148   1.281       .  A
O140       Cu144   2.036       .  S
O140        C147   1.281       .  A
O141       Cu144   1.978       .  S
O141        C146   1.273       .  A
O142       Cu144   1.983       .  S
O142        C145   1.273       .  A
Cu143      Cu144   2.375       .  S
C145        C162   1.469       .  S
C146        C186   1.468       .  S
C148        C210   1.468       .  S
N149        N150   1.323       .  A
N149        C153   1.345       .  A
N149       Cu157   2.074       .  S
N150        C151   1.344       .  A
N150       Cu156   2.074       .  S
C151        C152   1.384       .  A
C151        H154   1.080       .  S
C152        C153   1.383       .  A
C152        C538   1.480       .  S
C153        H155   1.082       .  S
Cu156       N159   2.073       .  S
Cu157       N167   2.073       .  S
Cu158       N160   2.075       .  S
Cu158       N166   2.074       .  S
N159        N160   1.322       .  A
N159        C163   1.349       .  A
N160        C161   1.342       .  A
C161        C162   1.382       .  A
C161        H164   1.082       .  S
C162        C163   1.383       .  A
C163        H165   1.081       .  S
N166        N167   1.319       .  A
N166        C170   1.344       .  A
N167        C168   1.344       .  A
C168        C169   1.391       .  A
C168        H171   1.076       .  S
C169        C170   1.391       .  A
C169        C653   1.497       .  S
C170        H172   1.081       .  S
N173        N174   1.319       .  A
N173        C177   1.345       .  A
N173       Cu181   2.076       .  S
N174        C175   1.343       .  A
N174       Cu180   2.064       .  S
C175        C176   1.387       .  A
C175        H178   1.078       .  S
C176        C177   1.390       .  A
C176        C618   1.490       .  S
C177        H179   1.082       .  S
Cu180       N183   2.065       .  S
Cu181       N191   2.077       .  S
Cu182       N184   2.077       .  S
Cu182       N190   2.079       .  S
N183        N184   1.322       .  A
N183        C187   1.339       .  A
N184        C185   1.350       .  A
C185        C186   1.385       .  A
C185        H188   1.081       .  S
C186        C187   1.380       .  A
C187        H189   1.082       .  S
N190        N191   1.323       .  A
N190        C194   1.344       .  A
N191        C192   1.345       .  A
C192        C193   1.385       .  A
C192        H195   1.080       .  S
C193        C194   1.384       .  A
C193        C525   1.483       .  S
C194        H196   1.082       .  S
N197        N198   1.320       .  A
N197        C201   1.343       .  A
N197       Cu205   2.068       .  S
N198        C199   1.345       .  A
N198       Cu204   2.068       .  S
C199        C200   1.385       .  A
C199        H202   1.081       .  S
C200        C201   1.385       .  A
C200        C506   1.479       .  S
C201        H203   1.082       .  S
Cu204       N207   2.069       .  S
Cu205       N215   2.069       .  S
Cu206       N208   2.080       .  S
Cu206       N214   2.081       .  S
N207        N208   1.322       .  A
N207        C211   1.340       .  A
N208        C209   1.350       .  A
C209        C210   1.385       .  A
C209        H212   1.081       .  S
C210        C211   1.380       .  A
C211        H213   1.082       .  S
N214        N215   1.320       .  A
N214        C218   1.344       .  A
N215        C216   1.343       .  A
C216        C217   1.389       .  A
C216        H219   1.076       .  S
C217        C218   1.392       .  A
C217        C589   1.496       .  S
C218        H220   1.081       .  S
O221       Cu229   1.977   1_455  S
O221        C231   1.273       .  A
O222       Cu229   1.977       .  S
O222        C232   1.273       .  A
O223       Cu229   2.038       .  S
O223        C233   1.282       .  A
O224       Cu229   2.040   1_455  S
O224        C234   1.282       .  A
O225       Cu230   1.978   1_455  S
O225        C234   1.273       .  A
O226       Cu230   1.975       .  S
O226        C233   1.272       .  A
O227       Cu230   2.041       .  S
O227        C232   1.282       .  A
O228       Cu230   2.041   1_455  S
O228        C231   1.282       .  A
Cu229      Cu230   2.375       .  S
C231        C272   1.469       .  S
C232        C296   1.468       .  S
C233        C320   1.466       .  S
C234        C248   1.468       .  S
N235        N236   1.323       .  A
N235        C239   1.345       .  A
N235       Cu243   2.073       .  S
N236        C237   1.343       .  A
N236       Cu242   2.073       .  S
C237        C238   1.383       .  A
C237        H240   1.081       .  S
C238        C239   1.383       .  A
C238        C554   1.478       .  S
C239        H241   1.082       .  S
Cu242       N245   2.072       .  S
Cu243       N253   2.072       .  S
Cu244       N246   2.075       .  S
Cu244       N252   2.074       .  S
N245        N246   1.322       .  A
N245        C249   1.349       .  A
N246        C247   1.341       .  A
C247        C248   1.382       .  A
C247        H250   1.082       .  S
C248        C249   1.383       .  A
C249        H251   1.081       .  S
N252        N253   1.320       .  A
N252        C256   1.344       .  A
N253        C254   1.344       .  A
C254        C255   1.387       .  A
C254        H257   1.079       .  S
C255        C256   1.387       .  A
C255        C490   1.487       .  S
C256        H258   1.082       .  S
N259        N260   1.322       .  A
N259        C263   1.345       .  A
N259       Cu267   2.074       .  S
N260        C261   1.343       .  A
N260       Cu266   2.077       .  S
C261        C262   1.387       .  A
C261        H264   1.082       .  S
C262        C263   1.387       .  A
C262        C477   1.488       .  S
C263        H265   1.079       .  S
Cu266       N269   2.076       .  S
Cu267       N277   2.073       .  S
Cu268       N270   2.070       .  S
Cu268       N276   2.069       .  S
N269        N270   1.322       .  A
N269        C273   1.350       .  A
N270        C271   1.340       .  A
C271        C272   1.381       .  A
C271        H274   1.082       .  S
C272        C273   1.385       .  A
C273        H275   1.081       .  S
N276        N277   1.319       .  A
N276        C280   1.344       .  A
N277        C278   1.344       .  A
C278        C279   1.389       .  A
C278        H281   1.082       .  S
C279        C280   1.388       .  A
C279        C522   1.490       .  S
C280        H282   1.078       .  S
N283        N284   1.321       .  A
N283        C287   1.345       .  A
N283       Cu291   2.075       .  S
N284        C285   1.345       .  A
N284       Cu290   2.073       .  S
C285        C286   1.384       .  A
C285        H288   1.082       .  S
C286        C287   1.384       .  A
C286        C541   1.479       .  S
C287        H289   1.082       .  S
Cu290       N293   2.073       .  S
Cu291       N301   2.076       .  S
Cu292       N294   2.071       .  S
Cu292       N300   2.072       .  S
N293        N294   1.322       .  A
N293        C297   1.341       .  A
N294        C295   1.349       .  A
C295        C296   1.383       .  A
C295        H298   1.081       .  S
C296        C297   1.382       .  A
C297        H299   1.082       .  S
N300        N301   1.322       .  A
N300        C304   1.343       .  A
N301        C302   1.345       .  A
C302        C303   1.386       .  A
C302        H305   1.082       .  S
C303        C304   1.384       .  A
C303        C461   1.483       .  S
C304        H306   1.079       .  S
N307        N308   1.323       .  A
N307        C311   1.346       .  A
N307       Cu315   2.077       .  S
N308        C309   1.342       .  A
N308       Cu314   2.067       .  S
C309        C310   1.382       .  A
C309        H312   1.080       .  S
C310        C311   1.384       .  A
C310        C509   1.478       .  S
C311        H313   1.082       .  S
Cu314       N317   2.066       .  S
Cu315       N325   2.076       .  S
Cu316       N318   2.072       .  S
Cu316       N324   2.071       .  S
N317        N318   1.321       .  A
N317        C321   1.349       .  A
N318        C319   1.341       .  A
C319        C320   1.382       .  A
C319        H322   1.082       .  S
C320        C321   1.383       .  A
C321        H323   1.081       .  S
N324        N325   1.322       .  A
N324        C328   1.345       .  A
N325        C326   1.346       .  A
C326        C327   1.382       .  A
C326        H329   1.082       .  S
C327        C328   1.381       .  A
C327        C442   1.473       .  S
C328        H330   1.082       .  S
O331       Cu339   2.034       .  S
O331        C341   1.281       .  A
O332       Cu339   2.033   1_455  S
O332        C342   1.281       .  A
O333       Cu339   1.979   1_455  S
O333        C343   1.274       .  A
O334       Cu339   1.982       .  S
O334        C344   1.274       .  A
O335       Cu340   2.036       .  S
O335        C344   1.281       .  A
O336       Cu340   2.037   1_455  S
O336        C343   1.281       .  A
O337       Cu340   1.982   1_455  S
O337        C342   1.274       .  A
O338       Cu340   1.983       .  S
O338        C341   1.274       .  A
Cu339      Cu340   2.376       .  S
C341        C430   1.466       .  S
C342        C382   1.467       .  S
C343        C358   1.468       .  S
C344        C406   1.468       .  S
N345        N346   1.321       .  A
N345        C349   1.346       .  A
N345       Cu353   2.076       .  S
N346        C347   1.343       .  A
N346       Cu352   2.062       .  S
C347        C348   1.383   1_556  A
C347        H350   1.081   1_556  S
C348        C349   1.386   1_554  A
C348        C474   1.480       .  S
C349        H351   1.082       .  S
Cu352       N355   2.063       .  S
Cu353       N363   2.078       .  S
Cu354       N356   2.078       .  S
Cu354       N362   2.080       .  S
N355        N356   1.321       .  A
N355        C359   1.339       .  A
N356        C357   1.350       .  A
C357        C358   1.385       .  A
C357        H360   1.081       .  S
C358        C359   1.380       .  A
C359        H361   1.082       .  S
N362        N363   1.325       .  A
N362        C366   1.345       .  A
N363        C364   1.346       .  A
C364        C365   1.380       .  A
C364        H367   1.082       .  S
C365        C366   1.380       .  A
C365        C602   1.472       .  S
C366        H368   1.081       .  S
N369        N370   1.321       .  A
N369        C373   1.345       .  A
N369       Cu377   2.073       .  S
N370        C371   1.344       .  A
N370       Cu376   2.068       .  S
C371        C372   1.382       .  A
C371        H374   1.082       .  S
C372        C373   1.384       .  A
C372        C669   1.476       .  S
C373        H375   1.082       .  S
Cu376       N379   2.069       .  S
Cu377       N387   2.074       .  S
Cu378       N380   2.074       .  S
Cu378       N386   2.075       .  S
N379        N380   1.322       .  A
N379        C383   1.341       .  A
N380        C381   1.349       .  A
C381        C382   1.384       .  A
C381        H384   1.081       .  S
C382        C383   1.381       .  A
C383        H385   1.082       .  S
N386        N387   1.322       .  A
N386        C390   1.344       .  A
N387        C388   1.345   1_545  A
C388        C389   1.385       .  A
C388        H391   1.082       .  S
C389        C390   1.385   1_565  A
C389        C493   1.482       .  S
C390        H392   1.080       .  S
N393        N394   1.323       .  A
N393        C397   1.344       .  A
N393       Cu401   2.070       .  S
N394        C395   1.344       .  A
N394       Cu400   2.078       .  S
C395        C396   1.385       .  A
C395        H398   1.082       .  S
C396        C397   1.384       .  A
C396        C634   1.482       .  S
C397        H399   1.080       .  S
Cu400       N403   2.077       .  S
Cu401       N411   2.069       .  S
Cu402       N404   2.071       .  S
Cu402       N410   2.070       .  S
N403        N404   1.322       .  A
N403        C407   1.350       .  A
N404        C405   1.341       .  A
C405        C406   1.381       .  A
C405        H408   1.082       .  S
C406        C407   1.384       .  A
C407        H409   1.081       .  S
N410        N411   1.320       .  A
N410        C414   1.344       .  A
N411        C412   1.344       .  A
C412        C413   1.386       .  A
C412        H415   1.080   1_545  S
C413        C414   1.386       .  A
C413        C458   1.483   1_546  S
C414        H416   1.082   1_556  S
N417        N418   1.321       .  A
N417        C421   1.346       .  A
N417       Cu425   2.079       .  S
N418        C419   1.343       .  A
N418       Cu424   2.066       .  S
C419        C420   1.383       .  A
C419        H422   1.081       .  S
C420        C421   1.387       .  A
C420        C573   1.481       .  S
C421        H423   1.082       .  S
Cu424       N427   2.066       .  S
Cu425       N435   2.080       .  S
Cu426       N428   2.072       .  S
Cu426       N434   2.073       .  S
N427        N428   1.321       .  A
N427        C431   1.341       .  A
N428        C429   1.349       .  A
C429        C430   1.384       .  A
C429        H432   1.081       .  S
C430        C431   1.381       .  A
C431        H433   1.082       .  S
N434        N435   1.322       .  A
N434        C438   1.342       .  A
N435        C436   1.345       .  A
C436        C437   1.389       .  A
C436        H439   1.082       .  S
C437        C438   1.387       .  A
C437        C445   1.492       .  S
C438        H440   1.077       .  S
C441        C442   1.397       .  A
C441        C446   1.404       .  A
C441        H448   1.084       .  S
C442        C443   1.407   1_554  A
C443        C444   1.404       .  A
C443        C450   1.506       .  S
C444        C445   1.409       .  A
C444        H449   1.083       .  S
C445        C446   1.423   1_556  A
C446        C447   1.507       .  S
C447        H451   1.111       .  S
C447        H452   1.108       .  S
C447        H453   1.110       .  S
C450        H454   1.110       .  S
C450        H455   1.111       .  S
C450        H456   1.111       .  S
C457        C458   1.404       .  A
C457        C462   1.403       .  A
C457        H464   1.084       .  S
C458        C459   1.415       .  A
C459        C460   1.404       .  A
C459        C466   1.507       .  S
C460        C461   1.404       .  A
C460        H465   1.084       .  S
C461        C462   1.416       .  A
C462        C463   1.508       .  S
C463        H467   1.111       .  S
C463        H468   1.106       .  S
C463        H469   1.110       .  S
C466        H470   1.107       .  S
C466        H471   1.110   1_565  S
C466        H472   1.111       .  S
C473        C474   1.401       .  A
C473        C478   1.405       .  A
C473        H480   1.084       .  S
C474        C475   1.414       .  A
C475        C476   1.402       .  A
C475        C482   1.508       .  S
C476        C477   1.405       .  A
C476        H481   1.084       .  S
C477        C478   1.419       .  A
C478        C479   1.507       .  S
C479        H483   1.111       .  S
C479        H484   1.107       .  S
C479        H485   1.110       .  S
C482        H486   1.107       .  S
C482        H487   1.110   1_554  S
C482        H488   1.111       .  S
C489        C490   1.405       .  A
C489        C494   1.404   1_554  A
C489        H496   1.084       .  S
C490        C491   1.417       .  A
C491        C492   1.404   1_554  A
C491        C498   1.507       .  S
C492        C493   1.403       .  A
C492        H497   1.084       .  S
C493        C494   1.414       .  A
C494        C495   1.508       .  S
C495        H499   1.111       .  S
C495        H500   1.110       .  S
C495        H501   1.107       .  S
C498        H502   1.110       .  S
C498        H503   1.106       .  S
C498        H504   1.111   1_554  S
C505        C506   1.402       .  A
C505        C510   1.401       .  A
C505        H512   1.083       .  S
C506        C507   1.415       .  A
C507        C508   1.405       .  A
C507        C514   1.507       .  S
C508        C509   1.403       .  A
C508        H513   1.084       .  S
C509        C510   1.414       .  A
C510        C511   1.508       .  S
C511        H515   1.111       .  S
C511        H516   1.107       .  S
C511        H517   1.110       .  S
C514        H518   1.107       .  S
C514        H519   1.110       .  S
C514        H520   1.111       .  S
C521        C522   1.406       .  A
C521        C526   1.404       .  A
C521        H528   1.084       .  S
C522        C523   1.420       .  A
C523        C524   1.405       .  A
C523        C530   1.507       .  S
C524        C525   1.402       .  A
C524        H529   1.084       .  S
C525        C526   1.414       .  A
C526        C527   1.508       .  S
C527        H531   1.111       .  S
C527        H532   1.107       .  S
C527        H533   1.111       .  S
C530        H534   1.107       .  S
C530        H535   1.110       .  S
C530        H536   1.111       .  S
C537        C538   1.404       .  A
C537        C542   1.405       .  A
C537        H544   1.084       .  S
C538        C539   1.415       .  A
C539        C540   1.403       .  A
C539        C546   1.508       .  S
C540        C541   1.402       .  A
C540        H545   1.084       .  S
C541        C542   1.413       .  A
C542        C543   1.507       .  S
C543        H547   1.111       .  S
C543        H548   1.111       .  S
C543        H549   1.108       .  S
C546        H550   1.110       .  S
C546        H551   1.108       .  S
C546        H552   1.110       .  S
C553        C554   1.403       .  A
C553        C558   1.405       .  A
C553        H560   1.084       .  S
C554        C555   1.414       .  A
C555        C556   1.403       .  A
C555        C562   1.508       .  S
C556        C557   1.402       .  A
C556        H561   1.083       .  S
C557        C558   1.415       .  A
C558        C559   1.507       .  S
C559        H563   1.111       .  S
C559        H564   1.108       .  S
C559        H565   1.110       .  S
C562        H566   1.108       .  S
C562        H567   1.111       .  S
C562        H568   1.110       .  S
C569        C570   1.402       .  A
C569        C574   1.405       .  A
C569        H576   1.084       .  S
C570        C571   1.414       .  A
C571        C572   1.402       .  A
C571        C578   1.508       .  S
C572        C573   1.403       .  A
C572        H577   1.083       .  S
C573        C574   1.416       .  A
C574        C575   1.507       .  S
C575        H579   1.111       .  S
C575        H580   1.107       .  S
C575        H581   1.110       .  S
C578        H582   1.107       .  S
C578        H583   1.111       .  S
C578        H584   1.110       .  S
C585        C586   1.397       .  A
C585        C590   1.406       .  A
C585        H592   1.085       .  S
C586        C587   1.406       .  A
C587        C588   1.402       .  A
C587        C594   1.507       .  S
C588        C589   1.410       .  A
C588        H593   1.082       .  S
C589        C590   1.425       .  A
C590        C591   1.506       .  S
C591        H595   1.111       .  S
C591        H596   1.108       .  S
C591        H597   1.110       .  S
C594        H598   1.110       .  S
C594        H599   1.111       .  S
C594        H600   1.111       .  S
C601        C602   1.397       .  A
C601        C606   1.406       .  A
C601        H608   1.084       .  S
C602        C603   1.407       .  A
C603        C604   1.403       .  A
C603        C610   1.507       .  S
C604        C605   1.409       .  A
C604        H609   1.082       .  S
C605        C606   1.424       .  A
C606        C607   1.507       .  S
C607        H611   1.111       .  S
C607        H612   1.110       .  S
C607        H613   1.107       .  S
C610        H614   1.111       .  S
C610        H615   1.110       .  S
C610        H616   1.110       .  S
C617        C618   1.406       .  A
C617        C622   1.404       .  A
C617        H624   1.084       .  S
C618        C619   1.421       .  A
C619        C620   1.404       .  A
C619        C626   1.507       .  S
C620        C621   1.400       .  A
C620        H625   1.085       .  S
C621        C622   1.412       .  A
C622        C623   1.507       .  S
C623        H627   1.111       .  S
C623        H628   1.108       .  S
C623        H629   1.111       .  S
C626        H630   1.107       .  S
C626        H631   1.110       .  S
C626        H632   1.111       .  S
C633        C634   1.403       .  A
C633        C638   1.403       .  A
C633        H640   1.084       .  S
C634        C635   1.415       .  A
C635        C636   1.404       .  A
C635        C642   1.507       .  S
C636        C637   1.404       .  A
C636        H641   1.084       .  S
C637        C638   1.417       .  A
C638        C639   1.508       .  S
C639        H643   1.111       .  S
C639        H644   1.107       .  S
C639        H645   1.110       .  S
C642        H646   1.107       .  S
C642        H647   1.110       .  S
C642        H648   1.111   1_545  S
C649        C650   1.399       .  A
C649        C654   1.405       .  A
C649        H656   1.084       .  S
C650        C651   1.409       .  A
C651        C652   1.403       .  A
C651        C658   1.508       .  S
C652        C653   1.410       .  A
C652        H657   1.082       .  S
C653        C654   1.423       .  A
C654        C655   1.506       .  S
C655        H659   1.111       .  S
C655        H660   1.108       .  S
C655        H661   1.110       .  S
C658        H662   1.108       .  S
C658        H663   1.111       .  S
C658        H664   1.111       .  S
C665        C666   1.404       .  A
C665        C670   1.402       .  A
C665        H672   1.084       .  S
C666        C667   1.417       .  A
C667        C668   1.405       .  A
C667        C674   1.507       .  S
C668        C669   1.402       .  A
C668        H673   1.085       .  S
C669        C670   1.412       .  A
C670        C671   1.507       .  S
C671        H675   1.111       .  S
C671        H676   1.108       .  S
C671        H677   1.111       .  S
C674        H678   1.107       .  S
C674        H679   1.110       .  S
C674        H680   1.111       .  S
C681        C682   1.403       .  A
C681        C686   1.404       .  A
C681        H688   1.084       .  S
C682        C683   1.415       .  A
C683        C684   1.403       .  A
C683        C690   1.508       .  S
C684        C685   1.404       .  A
C684        H689   1.084       .  S
C685        C686   1.416       .  A
C686        C687   1.507       .  S
C687        H691   1.111       .  S
C687        H692   1.110   1_565  S
C687        H693   1.107       .  S
C690        H694   1.110       .  S
C690        H695   1.107       .  S
C690        H696   1.111       .  S
