geometry optimzed in LAMMPS
_audit_creation_date              2020-11-30 
_audit_creation_method            'lammps2cif' 
_symmetry_space_group_name_H-M    'P1' 
_symmetry_Int_Tables_number       1 
_symmetry_cell_setting            triclinic 
loop_ 
_symmetry_equiv_pos_as_xyz 
  x,y,z 
_cell_length_a                    53.34994867 
_cell_length_b                    52.125223396434045 
_cell_length_c                    45.71828847390987 
_cell_angle_alpha                 89.99480150731948 
_cell_angle_beta                  89.755666409629 
_cell_angle_gamma                 89.98491571529134 
loop_ 
_atom_site_label 
_atom_site_type_symbol 
_atom_site_fract_x 
_atom_site_fract_y 
_atom_site_fract_z 
_atom_site_charge 
N1          N  0.28680744  0.07061110  0.68546674    -0.27100
N2          N  0.30080844  0.08683615  0.70052763    -0.35000
C3          C  0.28965667  0.09134382  0.72652363     0.01200
C4          C  0.26745148  0.07756571  0.72774669     0.07200
C5          C  0.26626779  0.06471839  0.70128154    -0.05900
H6          H  0.29684968  0.10425974  0.74300038     0.07900
H7          H  0.25166848  0.05178062  0.69413057     0.09100
Cu8        Cu  0.33357857  0.10364847  0.68427811     0.44200
Cu9        Cu  0.29624646  0.05640989  0.64435171     0.42000
Cu10       Cu  0.35048830  0.08498833  0.61060711     0.43900
N11         N  0.36284006  0.12053526  0.66064123    -0.34500
N12         N  0.36832660  0.11424686  0.63332748    -0.28800
C13         C  0.38708411  0.12932090  0.62361613    -0.04900
C14         C  0.39387884  0.14588735  0.64593767     0.07400
C15         C  0.37820342  0.13964200  0.66910454     0.01200
H16         H  0.39529267  0.12803740  0.60199421     0.08800
H17         H  0.37773556  0.14864275  0.69042881     0.07900
N18         N  0.33138276  0.05400268  0.59277005    -0.36000
N19         N  0.31117891  0.04374136  0.60481578    -0.28100
C20         C  0.30362061  0.02379768  0.58832877    -0.03400
C21         C  0.32000768  0.02119638  0.56486390     0.05200
C22         C  0.33736577  0.04073246  0.56848779     0.03300
H23         H  0.28786105  0.01156554  0.59362177     0.08400
H24         H  0.35330379  0.04496396  0.55460388     0.07300
O25         O  0.50944111  0.25533206  0.64086301    -0.72800
O26         O  0.45462901  0.20174480  0.64416075    -0.73800
O27         O  0.50754421  0.20067062  0.63624549    -0.62400
O28         O  0.45630115  0.25614665  0.64894228    -0.70800
O29         O  0.45159744  0.25963917  0.60089702    -0.70300
O30         O  0.50258136  0.20382803  0.58821225    -0.61600
O31         O  0.44987390  0.20506475  0.59611794    -0.74100
O32         O  0.50431430  0.25848805  0.59286672    -0.72900
Cu33       Cu  0.48219491  0.22837468  0.64422602     1.04600
Cu34       Cu  0.47693779  0.23189051  0.59286592     1.04300
C35         C  0.51536597  0.26547683  0.61628036     0.93400
C36         C  0.44369690  0.19491776  0.62055097     0.92600
C37         C  0.51290167  0.19325261  0.61030422     0.84700
C38         C  0.44585719  0.26663960  0.62689287     0.91000
N39         N  0.67216512  0.06666721  0.64159331    -0.27100
N40         N  0.65792028  0.07947581  0.66028004    -0.35000
C41         C  0.67034969  0.08228963  0.68559910     0.01200
C42         C  0.69367981  0.07088053  0.68272633     0.07200
C43         C  0.69417451  0.06120073  0.65447980    -0.05900
H44         H  0.66317715  0.09258568  0.70439648     0.07900
H45         H  0.70931481  0.05077299  0.64409406     0.09100
Cu46       Cu  0.62310046  0.09447024  0.64983668     0.44200
Cu47       Cu  0.66058819  0.05665137  0.59971734     0.42000
Cu48       Cu  0.59989765  0.08100937  0.57721864     0.43900
N49         N  0.59213108  0.11243198  0.63181781    -0.34500
N50         N  0.58404802  0.10816094  0.60495579    -0.28800
C51         C  0.56521325  0.12454824  0.59908872    -0.04900
C52         C  0.56129574  0.13981801  0.62352033     0.07400
C53         C  0.57855784  0.13146210  0.64383465     0.01200
H54         H  0.55537377  0.12538232  0.57847906     0.08800
H55         H  0.58161636  0.13925721  0.66546802     0.07900
N56         N  0.62008612  0.05365642  0.55390915    -0.36000
N57         N  0.64258302  0.04542460  0.56151421    -0.28100
C58         C  0.65029375  0.02764988  0.54208777    -0.03400
C59         C  0.63163696  0.02429371  0.52142909     0.05200
C60         C  0.61277667  0.04112437  0.52968160     0.03300
H61         H  0.66774347  0.01717042  0.54362944     0.08400
H62         H  0.59493224  0.04395733  0.51900839     0.07300
N63         N  0.28316846  0.38274369  0.64743148    -0.27100
N64         N  0.29823229  0.36865779  0.66386653    -0.35000
C65         C  0.28679414  0.36405439  0.68965691     0.01200
C66         C  0.26332867  0.37540941  0.68920920     0.07200
C67         C  0.26163529  0.38695918  0.66207809    -0.05900
H68         H  0.29496320  0.35325159  0.70743645     0.07900
H69         H  0.24634458  0.39862224  0.65409031     0.09100
Cu70       Cu  0.33355515  0.35575092  0.65065308     0.44200
Cu71       Cu  0.29315488  0.39892428  0.60752329     0.42000
Cu72       Cu  0.35442096  0.38242539  0.58224025     0.43900
N73         N  0.36592765  0.34354419  0.62899760    -0.34500
N74         N  0.37306264  0.35323696  0.60357389    -0.28800
C75         C  0.39320460  0.34036810  0.59372939    -0.04900
C76         C  0.39925484  0.32170624  0.61389670     0.07400
C77         C  0.38157986  0.32422991  0.63610048     0.01200
H78         H  0.40240691  0.34393698  0.57297819     0.08800
H79         H  0.37953963  0.31227263  0.65529871     0.07900
N80         N  0.33314205  0.41107269  0.56349692    -0.36000
N81         N  0.31025210  0.41702157  0.57223760    -0.28100
C82         C  0.30174034  0.43663713  0.55586345    -0.03400
C83         C  0.32031233  0.44337724  0.53593939     0.05200
C84         C  0.33990803  0.42667887  0.54149592     0.03300
H85         H  0.28367798  0.44572718  0.55881481     0.08400
H86         H  0.35782903  0.42581458  0.53039171     0.07300
N87         N  0.64391181  0.42141142  0.59371754    -0.27100
N88         N  0.62569212  0.40857794  0.58069397    -0.35000
C89         C  0.61979683  0.42054422  0.55556213     0.01200
C90         C  0.63468435  0.44215252  0.55283787     0.07200
C91         C  0.64968688  0.44216961  0.57747527    -0.05900
H92         H  0.60526372  0.41433295  0.54072942     0.07900
H93         H  0.66397937  0.45605033  0.58299609     0.09100
Cu94       Cu  0.60826906  0.37620030  0.59817330     0.44200
Cu95       Cu  0.66074544  0.40968375  0.63247931     0.42000
Cu96       Cu  0.63087245  0.35499997  0.66774030     0.43900
N97         N  0.59243019  0.34553092  0.62094188    -0.34500
N98         N  0.60061171  0.33801931  0.64680868    -0.28800
C99         C  0.58652230  0.31822545  0.65621031    -0.04900
C100        C  0.56864989  0.31284191  0.63524539     0.07400
C101        C  0.57293499  0.33061463  0.61313553     0.01200
H102        H  0.58916939  0.30836348  0.67679589     0.08800
H103        H  0.56256700  0.33279224  0.59301558     0.07900
N104        N  0.66241684  0.37349057  0.68391342    -0.36000
N105        N  0.67392401  0.39279241  0.67071324    -0.28100
C106        C  0.69431283  0.39931223  0.68636445    -0.03400
C107        C  0.69539263  0.38362067  0.71080341     0.05200
C108        C  0.67486224  0.36756140  0.70850557     0.03300
H109        H  0.70712001  0.41462574  0.68065993     0.08400
H110        H  0.66958282  0.35232879  0.72338040     0.07300
N111        N  0.28272232  0.88490031  0.36233383    -0.27100
N112        N  0.29755798  0.87068898  0.34561480    -0.35000
C113        C  0.28616056  0.86658538  0.31981947     0.01200
C114        C  0.26294089  0.87848821  0.32038859     0.07200
C115        C  0.26139338  0.88981894  0.34773266    -0.05900
H116        H  0.29407848  0.85542292  0.30209803     0.07900
H117        H  0.24616020  0.90140932  0.35614172     0.09100
Cu118      Cu  0.33239446  0.85651415  0.35837768     0.44200
Cu119      Cu  0.29249189  0.89933741  0.40324039     0.42000
Cu120      Cu  0.35375681  0.88140409  0.42726676     0.43900
N121        N  0.36484477  0.84361436  0.37889869    -0.34500
N122        N  0.37223872  0.85261096  0.40448183    -0.28800
C123        C  0.39262727  0.83959187  0.41319613    -0.04900
C124        C  0.39852174  0.82156279  0.39212403     0.07400
C125        C  0.38051480  0.82464280  0.37057052     0.01200
H126        H  0.40216575  0.84266219  0.43374013     0.08800
H127        H  0.37835066  0.81337566  0.35087652     0.07900
N128        N  0.33276643  0.90997428  0.44729911    -0.36000
N129        N  0.30973992  0.91603848  0.43932992    -0.28100
C130        C  0.30134972  0.93523465  0.45654275    -0.03400
C131        C  0.32017012  0.94174397  0.47605992     0.05200
C132        C  0.33979072  0.92528942  0.46946171     0.03300
H133        H  0.28325285  0.94437846  0.45431755     0.08400
H134        H  0.35788756  0.92445448  0.47999755     0.07300
O135        O  0.50537786  0.76109604  0.40457190    -0.72800
O136        O  0.45279317  0.70592720  0.40791029    -0.73800
O137        O  0.50577196  0.70654453  0.41102747    -0.62400
O138        O  0.45241675  0.76039790  0.40148392    -0.70800
O139        O  0.45437497  0.75611317  0.35323464    -0.70300
O140        O  0.50780931  0.70229325  0.36278146    -0.61600
O141        O  0.45467636  0.70187772  0.35962206    -0.74100
O142        O  0.50765054  0.75677004  0.35634251    -0.72900
Cu143      Cu  0.47903490  0.73364314  0.40791887     1.04600
Cu144      Cu  0.48125399  0.72910987  0.35631105     1.04300
C145        C  0.51461867  0.76782731  0.37992428     0.93400
C146        C  0.44543315  0.69522141  0.38433261     0.92600
C147        C  0.51497278  0.69568163  0.38836566     0.84700
C148        C  0.44503432  0.76682132  0.37592639     0.91000
N149        N  0.66751104  0.89467752  0.31199303    -0.27100
N150        N  0.65433070  0.87725939  0.29768995    -0.35000
C151        C  0.66652674  0.87106401  0.27284014     0.01200
C152        C  0.68863991  0.88490276  0.27169560     0.07200
C153        C  0.68867180  0.89963053  0.29688594    -0.05900
H154        H  0.66017342  0.85689062  0.25725328     0.07900
H155        H  0.70292831  0.91312906  0.30362054     0.09100
Cu156      Cu  0.62168022  0.86071322  0.31392849     0.44200
Cu157      Cu  0.65596932  0.91137961  0.35113391     0.42000
Cu158      Cu  0.59873625  0.88567375  0.38258077     0.43900
N159        N  0.59251705  0.84405944  0.33745490    -0.34500
N160        N  0.58440816  0.85290016  0.36289518    -0.28800
C161        C  0.56642311  0.83715533  0.37320934    -0.04900
C162        C  0.56303204  0.81746778  0.35320567     0.07400
C163        C  0.57979512  0.82256798  0.33080576     0.01200
H164        H  0.55655442  0.83997392  0.39367094     0.08800
H165        H  0.58280973  0.81123318  0.31127392     0.07900
N166        N  0.61766673  0.91720362  0.39939656    -0.36000
N167        N  0.63892797  0.92617933  0.38851831    -0.28100
C168        C  0.64670735  0.94594296  0.40514243    -0.03400
C169        C  0.62940614  0.94973764  0.42746372     0.05200
C170        C  0.61124363  0.93114797  0.42301120     0.03300
H171        H  0.66356819  0.95691487  0.40102793     0.08400
H172        H  0.59477632  0.92761857  0.43629668     0.07300
N173        N  0.31041690  0.54774908  0.41056763    -0.27100
N174        N  0.33173590  0.55654864  0.42125231    -0.35000
C175        C  0.33800749  0.54259396  0.44481613     0.01200
C176        C  0.31966671  0.52421514  0.44936055     0.07200
C177        C  0.30239366  0.52814499  0.42729486    -0.05900
H178        H  0.35486852  0.54546182  0.45745309     0.07900
H179        H  0.28584619  0.51682338  0.42284826     0.09100
Cu180      Cu  0.35221700  0.58618507  0.40273935     0.44200
Cu181      Cu  0.29493980  0.56042320  0.37167177     0.42000
Cu182      Cu  0.33422706  0.60292021  0.32902135     0.43900
N183        N  0.36970414  0.61467019  0.37855549    -0.34500
N184        N  0.36348779  0.62039057  0.35136322    -0.28800
C185        C  0.37847120  0.63934995  0.34167445    -0.04900
C186        C  0.39477064  0.64599860  0.36384326     0.07400
C187        C  0.38870490  0.62992030  0.38695728     0.01200
H188        H  0.37739351  0.64787905  0.32013904     0.08800
H189        H  0.39750766  0.62910874  0.40819887     0.07900
N190        N  0.30155286  0.58631553  0.31320180    -0.36000
N191        N  0.28660496  0.57185991  0.32941313    -0.28100
C192        C  0.26595417  0.56611147  0.31400576    -0.03400
C193        C  0.26804558  0.57730467  0.28666148     0.05200
C194        C  0.29093900  0.58983316  0.28683720     0.03300
H195        H  0.25049249  0.55472145  0.32219566     0.08400
H196        H  0.29877147  0.60161005  0.26958673     0.07300
N197        N  0.66545943  0.56149258  0.33760949    -0.27100
N198        N  0.65210669  0.57774474  0.32190690    -0.35000
C199        C  0.66466017  0.58329806  0.29713779     0.01200
C200        C  0.68722359  0.57021339  0.29751523     0.07200
C201        C  0.68715191  0.55662494  0.32353767    -0.05900
H202        H  0.65832209  0.59671537  0.28069170     0.07900
H203        H  0.70176023  0.54413949  0.33164303     0.09100
Cu204      Cu  0.61929931  0.59416118  0.33724412     0.44200
Cu205      Cu  0.65324222  0.54739910  0.37763448     0.42000
Cu206      Cu  0.60279286  0.58189566  0.41389651     0.43900
N207        N  0.59179831  0.61378359  0.36013835    -0.34500
N208        N  0.58634045  0.61029159  0.38812459    -0.28800
C209        C  0.56872954  0.62750069  0.39611468    -0.04900
C210        C  0.56290976  0.64240255  0.37191558     0.07400
C211        C  0.57779236  0.63306056  0.34960251     0.01200
H212        H  0.56067867  0.62884156  0.41781574     0.08800
H213        H  0.57869260  0.64006143  0.32733761     0.07900
N214        N  0.62065348  0.54996140  0.43181386    -0.36000
N215        N  0.63813612  0.53678184  0.41773632    -0.28100
C216        C  0.64460177  0.51625763  0.43385029    -0.03400
C217        C  0.63090267  0.51672438  0.45955886     0.05200
C218        C  0.61595611  0.53839845  0.45764066     0.03300
H219        H  0.65851404  0.50219968  0.42747308     0.08400
H220        H  0.60220612  0.54486487  0.47346087     0.07300
O221        O  0.00401979  0.70631493  0.08537351    -0.72800
O222        O  0.95024478  0.75968046  0.09579401    -0.73800
O223        O  0.00336402  0.76077374  0.09259829    -0.62400
O224        O  0.95086978  0.70512471  0.08895284    -0.70800
O225        O  0.95319556  0.70063481  0.13713392    -0.70300
O226        O  0.00521490  0.75610949  0.14078355    -0.61600
O227        O  0.95199535  0.75474573  0.14395437    -0.74100
O228        O  0.00639350  0.70188370  0.13355579    -0.72900
Cu229      Cu  0.97704663  0.73312682  0.08897453     1.04600
Cu230      Cu  0.97928429  0.72816266  0.14049961     1.04300
C231        C  0.01368039  0.69566699  0.10781304     0.93400
C232        C  0.94274001  0.76574924  0.12148499     0.92600
C233        C  0.01241941  0.76731737  0.11734810     0.84700
C234        C  0.94379122  0.69412028  0.11257938     0.91000
N235        N  0.14373107  0.91929998  0.10948878    -0.27100
N236        N  0.12225193  0.91123713  0.09852389    -0.35000
C237        C  0.11612535  0.92608023  0.07561169     0.01200
C238        C  0.13475131  0.94428494  0.07176040     0.07200
C239        C  0.15201076  0.93934873  0.09360660    -0.05900
H240        H  0.09940068  0.92364276  0.06261660     0.07900
H241        H  0.16898358  0.94995757  0.09814692     0.09100
Cu242      Cu  0.10220803  0.88040276  0.11505906     0.44200
Cu243      Cu  0.15966283  0.90360391  0.14672068     0.42000
Cu244      Cu  0.12224040  0.85555157  0.18507271     0.43900
N245        N  0.08555351  0.84917675  0.13534500    -0.34500
N246        N  0.09239227  0.84039737  0.16125073    -0.28800
C247        C  0.07805068  0.81997365  0.16803908    -0.04900
C248        C  0.06163340  0.81552923  0.14521876     0.07400
C249        C  0.06688422  0.83449645  0.12486990     0.01200
H250        H  0.07981843  0.80879410  0.18786755     0.08800
H251        H  0.05790836  0.83748794  0.10398411     0.07900
N252        N  0.15535901  0.87126176  0.20142252    -0.36000
N253        N  0.16949577  0.88763826  0.18661906    -0.28100
C254        C  0.19023309  0.89283050  0.20215197    -0.03400
C255        C  0.18900682  0.87942086  0.22821135     0.05200
C256        C  0.16659805  0.86600870  0.22708299     0.03300
H257        H  0.20491973  0.90580788  0.19519433     0.08400
H258        H  0.15930133  0.85292216  0.24339653     0.07300
N259        N  0.14850709  0.54751876  0.07247966    -0.27100
N260        N  0.12988682  0.55959553  0.05929676    -0.35000
C261        C  0.12491183  0.54753986  0.03388257     0.01200
C262        C  0.14087960  0.52667937  0.03128056     0.07200
C263        C  0.15549115  0.52724484  0.05617557    -0.05900
H264        H  0.10996296  0.55278574  0.01912680     0.07900
H265        H  0.16995105  0.51370173  0.06220222     0.09100
Cu266      Cu  0.11015059  0.58992768  0.07844076     0.44200
Cu267      Cu  0.16319539  0.55821216  0.11263790     0.42000
Cu268      Cu  0.12626354  0.60214292  0.15474962     0.43900
N269        N  0.09170336  0.61656046  0.10507431    -0.34500
N270        N  0.09728326  0.62023527  0.13293528    -0.28800
C271        C  0.08190031  0.63813756  0.14417638    -0.04900
C272        C  0.06588734  0.64633046  0.12247703     0.07400
C273        C  0.07257132  0.63221906  0.09788748     0.01200
H274        H  0.08253448  0.64493112  0.16653202     0.08800
H275        H  0.06412228  0.63306146  0.07645154     0.07900
N276        N  0.15918019  0.58605980  0.17002869    -0.36000
N277        N  0.17346649  0.57088376  0.15390286    -0.28100
C278        C  0.19457142  0.56553038  0.16869805    -0.03400
C279        C  0.19335314  0.57769154  0.19559713     0.05200
C280        C  0.17057946  0.59043925  0.19573407     0.03300
H281        H  0.20961213  0.55355482  0.16052657     0.08400
H282        H  0.16323093  0.60272977  0.21280602     0.07300
N283        N  0.81505046  0.92300820  0.06496216    -0.27100
N284        N  0.83772717  0.91593177  0.05646099    -0.35000
C285        C  0.84489693  0.93038528  0.03359869     0.01200
C286        C  0.82576779  0.94734080  0.02710125     0.07200
C287        C  0.80703293  0.94204307  0.04736384    -0.05900
H288        H  0.86270039  0.92849649  0.02238247     0.07900
H289        H  0.78921470  0.95176256  0.04966579     0.09100
Cu290      Cu  0.85802437  0.88680393  0.07590201     0.44200
Cu291      Cu  0.79742854  0.90733080  0.10156753     0.42000
Cu292      Cu  0.83524469  0.86157172  0.14399650     0.43900
N293        N  0.87466814  0.85626214  0.09718213    -0.34500
N294        N  0.86670304  0.84700708  0.12248190    -0.28800
C295        C  0.88078828  0.82645335  0.12954376    -0.04900
C296        C  0.89832773  0.82262998  0.10743820     0.07400
C297        C  0.89383773  0.84187838  0.08738857     0.01200
H298        H  0.87780945  0.81467336  0.14872132     0.08800
H299        H  0.90345617  0.84487300  0.06677349     0.07900
N300        N  0.80063732  0.87606813  0.15746399    -0.36000
N301        N  0.78647623  0.89143885  0.14144312    -0.28100
C302        C  0.76478737  0.89579703  0.15574503    -0.03400
C303        C  0.76539828  0.88286527  0.18217928     0.05200
C304        C  0.78845476  0.87065540  0.18258056     0.03300
H305        H  0.74989124  0.90798485  0.14776178     0.08400
H306        H  0.79566409  0.85832976  0.19962875     0.07300
N307        N  0.81347053  0.54259605  0.08909558    -0.27100
N308        N  0.83379168  0.55326933  0.07786779    -0.35000
C309        C  0.84020646  0.54079910  0.05320553     0.01200
C310        C  0.82297866  0.52134957  0.04850248     0.07200
C311        C  0.80625129  0.52313464  0.07172532    -0.05900
H312        H  0.85632525  0.54551287  0.03982009     0.07900
H313        H  0.79046906  0.51069649  0.07622252     0.09100
Cu314      Cu  0.85221141  0.58372020  0.09732776     0.44200
Cu315      Cu  0.79779341  0.55437600  0.12848955     0.42000
Cu316      Cu  0.83245884  0.60244963  0.17039052     0.43900
N317        N  0.86899437  0.61277547  0.12108891    -0.34500
N318        N  0.86238548  0.61921638  0.14802154    -0.28800
C319        C  0.87733717  0.63838625  0.15715674    -0.04900
C320        C  0.89389775  0.64444818  0.13481755     0.07400
C321        C  0.88810284  0.62776859  0.11229287     0.01200
H322        H  0.87598386  0.64755192  0.17834251     0.08800
H323        H  0.89715946  0.62639624  0.09113963     0.07900
N324        N  0.79970999  0.58470888  0.18499741    -0.36000
N325        N  0.78676236  0.56815017  0.16914871    -0.28100
C326        C  0.76575029  0.56173758  0.18371958    -0.03400
C327        C  0.76551325  0.57458831  0.21016767     0.05200
C328        C  0.78738968  0.58889944  0.21034206     0.03300
H329        H  0.75171986  0.54855117  0.17567217     0.08400
H330        H  0.79348960  0.60202780  0.22720285     0.07300
O331        O  0.00902403  0.20341331  0.88656475    -0.72800
O332        O  0.95663578  0.25891896  0.88221212    -0.73800
O333        O  0.95592192  0.20412743  0.88636811    -0.62400
O334        O  0.01011150  0.25814566  0.88222790    -0.70800
O335        O  0.00997573  0.25499048  0.83382080    -0.70300
O336        O  0.95615271  0.20132642  0.83793275    -0.61600
O337        O  0.95656974  0.25569809  0.83381391    -0.74100
O338        O  0.00927343  0.20077323  0.83809806    -0.72900
Cu339      Cu  0.98290585  0.23129031  0.88607165     1.04600
Cu340      Cu  0.98299421  0.22813670  0.83427389     1.04300
C341        C  0.01724961  0.19324353  0.86294902     0.93400
C342        C  0.94829413  0.26600743  0.85729000     0.92600
C343        C  0.94770437  0.19405841  0.86278062     0.84700
C344        C  0.01863556  0.26496468  0.85719574     0.91000
N345        N  0.14692092  0.42527389  0.90219068    -0.27100
N346        N  0.13010219  0.41271865  0.91799394    -0.35000
C347        C  0.12559140  0.42586610  0.94277889     0.01200
C348        C  0.13992015  0.44797306  0.94237755     0.07200
C349        C  0.15315456  0.44704645  0.91627651    -0.05900
H350        H  0.11231610  0.42011181  0.95948388     0.07900
H351        H  0.16655350  0.46099247  0.90829500     0.09100
Cu352      Cu  0.11224720  0.37942680  0.90430531     0.44200
Cu353      Cu  0.16090839  0.41175411  0.86251777     0.42000
Cu354      Cu  0.12690062  0.35755074  0.83164196     0.43900
N355        N  0.09374039  0.34910516  0.88433582    -0.34500
N356        N  0.09868681  0.34144619  0.85735948    -0.28800
C357        C  0.08308569  0.32209376  0.85043863    -0.04900
C358        C  0.06754372  0.31734199  0.87426830     0.07400
C359        C  0.07493109  0.33479273  0.89533206     0.01200
H360        H  0.08326805  0.31217391  0.82966616     0.08800
H361        H  0.06701661  0.33710398  0.91700791     0.07900
N362        N  0.15807663  0.37445467  0.81198127    -0.36000
N363        N  0.17102508  0.39344168  0.82377459    -0.28100
C364        C  0.19109694  0.39843962  0.80675963    -0.03400
C365        C  0.19058842  0.38207694  0.78290178     0.05200
C366        C  0.16933323  0.36722359  0.78689045     0.03300
H367        H  0.20497888  0.41300261  0.81136119     0.08400
H368        H  0.16296285  0.35170818  0.77307423     0.07300
N369        N  0.14686232  0.04629577  0.94382854    -0.27100
N370        N  0.12457676  0.05416401  0.95288957    -0.35000
C371        C  0.11793374  0.04083476  0.97683685     0.01200
C372        C  0.13690977  0.02366844  0.98335728     0.07200
C373        C  0.15504760  0.02779919  0.96202960    -0.05900
H374        H  0.10028955  0.04318888  0.98826905     0.07900
H375        H  0.17235158  0.01727879  0.95907081     0.09100
Cu376      Cu  0.10300242  0.08135169  0.93165386     0.44200
Cu377      Cu  0.16376661  0.05899444  0.90522177     0.42000
Cu378      Cu  0.12429709  0.09824064  0.85936092     0.43900
N379        N  0.08521968  0.10826280  0.90570237    -0.34500
N380        N  0.09280184  0.11402117  0.87894300    -0.28800
C381        C  0.07824311  0.13282847  0.86826575    -0.04900
C382        C  0.06067004  0.13930056  0.88941588     0.07400
C383        C  0.06565734  0.12333632  0.91283179     0.01200
H384        H  0.08100045  0.14173442  0.84713281     0.08800
H385        H  0.05613843  0.12310349  0.93378345     0.07900
N386        N  0.15906412  0.08462136  0.84631704    -0.36000
N387        N  0.17415570  0.07133383  0.86347572    -0.28100
C388        C  0.19573059  0.06672570  0.84895796    -0.03400
C389        C  0.19393869  0.07734511  0.82122620     0.05200
C390        C  0.17041151  0.08848946  0.82037210     0.03300
H391        H  0.21133591  0.05596494  0.85770646     0.08400
H392        H  0.16228208  0.09906231  0.80238866     0.07300
N393        N  0.81894665  0.04186404  0.89162694    -0.27100
N394        N  0.83956958  0.05218706  0.90232699    -0.35000
C395        C  0.84544719  0.04026088  0.92746736     0.01200
C396        C  0.82753126  0.02158457  0.93301616     0.07200
C397        C  0.81099688  0.02322807  0.90978409    -0.05900
H398        H  0.86157346  0.04492014  0.94069812     0.07900
H399        H  0.79476153  0.01129878  0.90587758     0.09100
Cu400      Cu  0.85875968  0.08177605  0.88177962     0.44200
Cu401      Cu  0.80363453  0.05281460  0.85195731     0.42000
Cu402      Cu  0.84043399  0.09664546  0.80712244     0.43900
N403        N  0.87516829  0.11045431  0.85675542    -0.34500
N404        N  0.86914462  0.11538323  0.82928783    -0.28800
C405        C  0.88336049  0.13496456  0.81954694    -0.04900
C406        C  0.89884947  0.14288940  0.84200667     0.07400
C407        C  0.89317890  0.12685913  0.86527232     0.01200
H408        H  0.88217930  0.14316748  0.79785074     0.08800
H409        H  0.90152960  0.12692130  0.88677748     0.07900
N410        N  0.80711027  0.07968930  0.79350870    -0.36000
N411        N  0.79322421  0.06482818  0.81053345    -0.28100
C412        C  0.77183963  0.05899437  0.79659155    -0.03400
C413        C  0.77234496  0.07044427  0.76931059     0.05200
C414        C  0.79503430  0.08333608  0.76802841     0.03300
H415        H  0.75701663  0.04724378  0.80568110     0.08400
H416        H  0.80180569  0.09532225  0.75036445     0.07300
N417        N  0.78798814  0.38583698  0.84577551    -0.27100
N418        N  0.80312115  0.37219913  0.82883023    -0.35000
C419        C  0.79202345  0.36859941  0.80273864     0.01200
C420        C  0.76868282  0.38022252  0.80344275     0.07200
C421        C  0.76671173  0.39082159  0.83111079    -0.05900
H422        H  0.80023216  0.35806690  0.78469512     0.07900
H423        H  0.75129427  0.40210633  0.83961069     0.09100
Cu424      Cu  0.83789284  0.35835148  0.84224099     0.44200
Cu425      Cu  0.79787059  0.39969188  0.88683006     0.42000
Cu426      Cu  0.85955470  0.38195849  0.91192918     0.43900
N427        N  0.86973236  0.34433877  0.86315941    -0.34500
N428        N  0.87726361  0.35272600  0.88896341    -0.28800
C429        C  0.89708266  0.33876141  0.89766423    -0.04900
C430        C  0.90245512  0.32078020  0.87632032     0.07400
C431        C  0.88472563  0.32487642  0.85467938     0.01200
H432        H  0.90664019  0.34123541  0.91829813     0.08800
H433        H  0.88229019  0.31400883  0.83473965     0.07900
N434        N  0.83799573  0.41044275  0.93135427    -0.36000
N435        N  0.81501917  0.41632031  0.92295938    -0.28100
C436        C  0.80635091  0.43564361  0.93974414    -0.03400
C437        C  0.82489762  0.44245902  0.95942267     0.05200
C438        C  0.84466850  0.42602242  0.95343116     0.03300
H439        H  0.78825706  0.44469661  0.93705769     0.08400
H440        H  0.86264634  0.42542596  0.96426556     0.07300
C441        C  0.03879445  0.28431334  0.85457171    -0.16300
C442        C  0.04735223  0.29797658  0.87738517    -0.31400
H443        H  0.04653940  0.28759849  0.83289839     0.12800
H444        H  0.03905174  0.29528670  0.89891102     0.13300
C445        C  0.03613495  0.17261619  0.86389398    -0.16300
C446        C  0.04172399  0.15995581  0.88861997    -0.31400
H447        H  0.04509542  0.16726576  0.84341930     0.12800
H448        H  0.03192798  0.16458951  0.90882984     0.13300
C449        C  0.92859269  0.17358053  0.86454674    -0.16300
C450        C  0.91744558  0.16390408  0.84060449    -0.31400
H451        H  0.92363420  0.16635974  0.88608032     0.12800
H452        H  0.92181546  0.17180972  0.81919196     0.13300
C453        C  0.92879631  0.28610624  0.85516548    -0.16300
C454        C  0.92207103  0.30073972  0.87810997    -0.31400
H455        H  0.92012884  0.28919558  0.83401160     0.12800
H456        H  0.93150899  0.29828276  0.89893560     0.13300
C457        C  0.84586083  0.49509639  0.01101236    -0.13200
C458        C  0.82325039  0.50191364  0.02484099     0.09000
C459        C  0.80103381  0.48955747  0.01633395    -0.13200
C460        C  0.80146069  0.47061934  0.99462333    -0.13200
C461        C  0.82418891  0.46328903  0.98144908     0.09000
C462        C  0.84635982  0.47580661  0.98976172    -0.13200
H463        H  0.86330889  0.50419105  0.01712580     0.13000
H464        H  0.78329425  0.49457446  0.02640089     0.13000
H465        H  0.78409640  0.46127733  0.98865145     0.13000
H466        H  0.86411032  0.47076710  0.97973611     0.13000
C467        C  0.84850462  0.97848416  0.99501649    -0.13200
C468        C  0.82586633  0.96700759  0.00376123     0.09000
C469        C  0.80361539  0.97403724  0.98956881    -0.13200
C470        C  0.80412065  0.99174677  0.96652999    -0.13200
C471        C  0.82681223  0.00316529  0.95771151     0.09000
C472        C  0.84894192  0.99654309  0.97243432    -0.13200
H473        H  0.86591228  0.97358501  0.00575374     0.13000
H474        H  0.78592923  0.96539411  0.99582190     0.13000
H475        H  0.78672931  0.99660541  0.95575160     0.13000
H476        H  0.86673730  0.00487300  0.96609823     0.13000
C477        C  0.13949208  0.51334743  0.97865642    -0.13200
C478        C  0.14085267  0.50668637  0.00836384     0.09000
C479        C  0.14213694  0.48066587  0.01617090    -0.13200
C480        C  0.14152327  0.46158860  0.99467092    -0.13200
C481        C  0.14057399  0.46822676  0.96495130     0.09000
C482        C  0.13983709  0.49425892  0.95706458    -0.13200
H483        H  0.13855944  0.53331417  0.97217875     0.13000
H484        H  0.14308571  0.47509502  0.03896242     0.13000
H485        H  0.14214868  0.44162413  0.00121931     0.13000
H486        H  0.13896330  0.49977217  0.93425171     0.13000
C487        C  0.15904729  0.99341020  0.01737500    -0.13200
C488        C  0.13661397  0.00368053  0.00640449     0.09000
C489        C  0.11368430  0.99441166  0.01733898    -0.13200
C490        C  0.11315743  0.97507974  0.03846539    -0.13200
C491        C  0.13553810  0.96487692  0.04952225     0.09000
C492        C  0.15851454  0.97436101  0.03898357    -0.13200
H493        H  0.17699406  0.00024673  0.00944764     0.13000
H494        H  0.09606135  0.00172219  0.00918286     0.13000
H495        H  0.09517989  0.96828783  0.04635097     0.13000
H496        H  0.17604803  0.96672347  0.04704964     0.13000
C497        C  0.03114416  0.78821404  0.11863463    -0.16300
C498        C  0.04292515  0.79461468  0.14357735    -0.31400
H499        H  0.03543066  0.79838005  0.09849474     0.12800
H500        H  0.03919834  0.78381849  0.16345794     0.13300
C501        C  0.92337037  0.78575594  0.12556176    -0.16300
C502        C  0.91699696  0.80187367  0.10388558    -0.31400
H503        H  0.91497476  0.78789583  0.14709833     0.12800
H504        H  0.92632425  0.80034460  0.08278020     0.13300
C505        C  0.03329670  0.67594843  0.10357447    -0.16300
C506        C  0.04608768  0.66594555  0.12610988    -0.31400
H507        H  0.03748297  0.66983932  0.08138190     0.12800
H508        H  0.04232037  0.67271007  0.14817683     0.13300
C509        C  0.91340815  0.66455302  0.13560491    -0.16300
C510        C  0.92462867  0.67368418  0.11131838    -0.31400
H511        H  0.91803815  0.67264011  0.15680561     0.12800
H512        H  0.91921213  0.66653411  0.08995244     0.13300
C513        C  0.73261198  0.57254872  0.28373151    -0.13200
C514        C  0.70734995  0.57135724  0.27532133     0.09000
C515        C  0.70135792  0.57151235  0.24547923    -0.13200
C516        C  0.72033847  0.57228650  0.22433572    -0.13200
C517        C  0.74559506  0.57378426  0.23268313     0.09000
C518        C  0.75158758  0.57419897  0.26255445    -0.13200
H519        H  0.73761902  0.57264044  0.30666274     0.13000
H520        H  0.68199740  0.57057450  0.23852751     0.13000
H521        H  0.71526108  0.57209844  0.20142735     0.13000
H522        H  0.77094735  0.57526739  0.26947665     0.13000
C523        C  0.22341637  0.57802987  0.27040267    -0.13200
C524        C  0.24903722  0.57743382  0.26325902     0.09000
C525        C  0.25627043  0.57711471  0.23370307    -0.13200
C526        C  0.23813996  0.57684998  0.21166603    -0.13200
C527        C  0.21251864  0.57767693  0.21883226     0.09000
C528        C  0.20532500  0.57852719  0.24838054    -0.13200
H529        H  0.21737934  0.57853001  0.29303828     0.13000
H530        H  0.27591711  0.57663244  0.22767614     0.13000
H531        H  0.24414767  0.57640139  0.18901957     0.13000
H532        H  0.18569381  0.57912013  0.25445746     0.13000
C533        C  0.73371327  0.88363093  0.25652711    -0.13200
C534        C  0.70826213  0.88377281  0.24884034     0.09000
C535        C  0.70169054  0.88299379  0.21916375    -0.13200
C536        C  0.72029210  0.88285271  0.19747902    -0.13200
C537        C  0.74576579  0.88259905  0.20513580     0.09000
C538        C  0.75231375  0.88260071  0.23486019    -0.13200
H539        H  0.73918534  0.88403789  0.27930832     0.13000
H540        H  0.68216875  0.88311577  0.21275870     0.13000
H541        H  0.71477777  0.88269368  0.17471175     0.13000
H542        H  0.77182048  0.88248154  0.24131015     0.13000
C543        C  0.53305207  0.78898403  0.37905101    -0.16300
C544        C  0.54530293  0.79566647  0.35444927    -0.31400
H545        H  0.53649722  0.79936175  0.39923216     0.12800
H546        H  0.54252408  0.78465291  0.33454775     0.13300
C547        C  0.41437728  0.66598041  0.36223876    -0.16300
C548        C  0.42615488  0.67495444  0.38606524    -0.31400
H549        H  0.41868971  0.67401325  0.34086800     0.12800
H550        H  0.42111481  0.66777880  0.40759923     0.13300
C551        C  0.53366122  0.67500554  0.39208699    -0.16300
C552        C  0.54470896  0.66359662  0.36906081    -0.31400
H553        H  0.53822849  0.66897038  0.41416446     0.12800
H554        H  0.54055823  0.67020883  0.34706788     0.15300
C555        C  0.25142596  0.87862736  0.26731856    -0.13200
C556        C  0.24397447  0.87906464  0.29682333     0.09000
C557        C  0.21826371  0.87984808  0.30361003    -0.13200
C558        C  0.20034168  0.87955695  0.28130966    -0.13200
C559        C  0.20783777  0.87931589  0.25184472     0.09000
C560        C  0.23352624  0.87914433  0.24503891    -0.13200
H561        H  0.27110952  0.87822758  0.26146707     0.13000
H562        H  0.21201010  0.88013717  0.32616887     0.13000
H563        H  0.18062954  0.87989794  0.28705599     0.13000
H564        H  0.23974426  0.87892777  0.22245780     0.13000
C565        C  0.41858758  0.80210183  0.39451832    -0.16300
C566        C  0.42543941  0.78663966  0.37235572    -0.31400
H567        H  0.42812032  0.80059070  0.41540691     0.12800
H568        H  0.41679272  0.78874477  0.35103294     0.13300
C569        C  0.70671361  0.37919267  0.76350332    -0.13200
C570        C  0.71420264  0.38368466  0.73446715     0.09000
C571        C  0.73974500  0.38741836  0.72824832    -0.13200
C572        C  0.75756557  0.38589356  0.75062402    -0.13200
C573        C  0.75001087  0.38153939  0.77968225     0.09000
C574        C  0.72441077  0.37855450  0.78597276    -0.13200
H575        H  0.68710717  0.37639125  0.76884604     0.13000
H576        H  0.74596145  0.39082110  0.70600239     0.13000
H577        H  0.77721096  0.38844149  0.74531709     0.13000
H578        H  0.71815762  0.37515923  0.80820758     0.13000
C579        C  0.63557020  0.48763521  0.53523946    -0.13200
C580        C  0.63413596  0.46129099  0.52899688     0.09000
C581        C  0.63167652  0.45333677  0.49981316    -0.13200
C582        C  0.63100937  0.47140732  0.47719588    -0.13200
C583        C  0.63183909  0.49774913  0.48349491     0.09000
C584        C  0.63394634  0.50575036  0.51268714    -0.13200
H585        H  0.63736760  0.49418846  0.55760944     0.13000
H586        H  0.63063001  0.43311364  0.49449534     0.13000
H587        H  0.62938522  0.46485363  0.45480265     0.13000
H588        H  0.63477824  0.52599460  0.51795598     0.13000
C589        C  0.21910543  0.37349574  0.70744250    -0.13200
C590        C  0.24474735  0.37666324  0.71319969     0.09000
C591        C  0.25248344  0.38160719  0.74194904    -0.13200
C592        C  0.23481495  0.38380184  0.76452616    -0.13200
C593        C  0.20919006  0.38022905  0.75889802     0.09000
C594        C  0.20150365  0.37480453  0.73020572    -0.13200
H595        H  0.21275050  0.36966637  0.68540210     0.13000
H596        H  0.27215537  0.38431002  0.74682047     0.13000
H597        H  0.24121299  0.38787469  0.78648682     0.13000
H598        H  0.18184101  0.37207752  0.72531043     0.13000
C599        C  0.29711030  0.47384794  0.50319170    -0.13200
C600        C  0.31989088  0.46424413  0.51396197     0.09000
C601        C  0.34248163  0.47461684  0.50336849    -0.13200
C602        C  0.34232927  0.49422632  0.48259560    -0.13200
C603        C  0.31960573  0.50367196  0.47163229     0.09000
C604        C  0.29697463  0.49322619  0.48198425    -0.13200
H605        H  0.27940751  0.46613795  0.51080992     0.13000
H606        H  0.36035117  0.46781825  0.51135176     0.13000
H607        H  0.36006709  0.50172596  0.47480776     0.13000
H608        H  0.27918905  0.50024817  0.47395057     0.13000
C609        C  0.70801173  0.07088382  0.73480399    -0.13200
C610        C  0.71388283  0.07007863  0.70483000     0.09000
C611        C  0.73918545  0.06903251  0.69621354    -0.13200
C612        C  0.75824585  0.06939212  0.71716885    -0.13200
C613        C  0.75231384  0.07008421  0.74709617     0.09000
C614        C  0.72703786  0.07056600  0.75573696    -0.13200
H615        H  0.68869283  0.07153114  0.74210218     0.13000
H616        H  0.74426896  0.06853112  0.67327517     0.13000
H617        H  0.77761526  0.06886092  0.71001446     0.13000
H618        H  0.72199675  0.07122863  0.77869422     0.13000
C619        C  0.65352950  0.99748603  0.48349369    -0.13200
C620        C  0.63118833  0.00557895  0.49702789     0.09000
C621        C  0.60832781  0.99538897  0.48730218    -0.13200
C622        C  0.60781304  0.97722377  0.46481418    -0.13200
C623        C  0.63010746  0.96918373  0.45114570     0.09000
C624        C  0.65297388  0.97966855  0.46055698    -0.13200
H625        H  0.67141143  0.00511407  0.49045589     0.13000
H626        H  0.59082288  0.00109276  0.49745018     0.13000
H627        H  0.58988208  0.96966152  0.45794958     0.13000
H628        H  0.67048255  0.97375582  0.45057389     0.13000
C629        C  0.42678248  0.28675910  0.63177727    -0.16300
C630        C  0.41897105  0.30208111  0.61003552    -0.31400
H631        H  0.41926497  0.28916495  0.65371904     0.12800
H632        H  0.42747554  0.30039931  0.58847519     0.13300
C633        C  0.53084530  0.17204938  0.60553733    -0.16300
C634        C  0.54338032  0.16112527  0.62773466    -0.31400
H635        H  0.53378929  0.16537795  0.58329189     0.12800
H636        H  0.54094879  0.16841130  0.64982872     0.13300
C637        C  0.53484383  0.28569727  0.61437634    -0.16300
C638        C  0.54923329  0.29251350  0.63718972    -0.31400
H639        H  0.53750572  0.29504441  0.59336375     0.12800
H640        H  0.54708466  0.28258497  0.65794918     0.13300
C641        C  0.25628506  0.07921215  0.78107309    -0.13200
C642        C  0.24872011  0.07712767  0.75176647     0.09000
C643        C  0.22306286  0.07474659  0.74554122    -0.13200
C644        C  0.20528145  0.07501660  0.76813301    -0.13200
C645        C  0.21285218  0.07689123  0.79744413     0.09000
C646        C  0.23853177  0.07870135  0.80374192    -0.13200
H647        H  0.27595912  0.08091392  0.78646425     0.13000
H648        H  0.21670590  0.07321716  0.72314686     0.13000
H649        H  0.18560082  0.07345984  0.76270878     0.13000
H650        H  0.24482614  0.08028161  0.82615619     0.13000
C651        C  0.34220792  0.99403423  0.52759913    -0.13200
C652        C  0.31984758  0.00112455  0.54181182     0.09000
C653        C  0.29747306  0.98868137  0.53398834    -0.13200
C654        C  0.29746136  0.96967721  0.51229208    -0.13200
C655        C  0.31991121  0.96233158  0.49846492     0.09000
C656        C  0.34227704  0.97468612  0.50639517    -0.13200
H657        H  0.35978891  0.00309874  0.53323162     0.13000
H658        H  0.27992084  0.99381189  0.54442370     0.13000
H659        H  0.27996760  0.96040174  0.50671096     0.13000
H660        H  0.35984324  0.96958603  0.49597075     0.13000
C661        C  0.41362989  0.16591778  0.64581063    -0.16300
C662        C  0.42393835  0.17495938  0.62093210    -0.31400
H663        H  0.41933111  0.17385506  0.66672112     0.12800
H664        H  0.41741096  0.16786405  0.59997175     0.13300
loop_ 
_geom_bond_atom_site_label_1 
_geom_bond_atom_site_label_2 
_geom_bond_distance 
_geom_bond_site_symmetry_2 
_ccdc_geom_bond_type 
N1            N2   1.324       .  A
N1            C5   1.346       .  A
N1           Cu9   2.080       .  S
N2            C3   1.347       .  A
N2           Cu8   2.089       .  S
C3            C4   1.386       .  A
C3            H6   1.082       .  S
C4            C5   1.385       .  A
C4          C642   1.482       .  S
C5            H7   1.082       .  S
Cu8          N11   2.089       .  S
Cu9          N19   2.080       .  S
Cu10         N12   2.078       .  S
Cu10         N18   2.079       .  S
N11          N12   1.323       .  A
N11          C15   1.348       .  A
N12          C13   1.346       .  A
C13          C14   1.386       .  A
C13          H16   1.082       .  S
C14          C15   1.386       .  A
C14         C661   1.484       .  S
C15          H17   1.082       .  S
N18          N19   1.322       .  A
N18          C22   1.345       .  A
N19          C20   1.347       .  A
C20          C21   1.388       .  A
C20          H23   1.082       .  S
C21          C22   1.387       .  A
C21         C652   1.485       .  S
C22          H24   1.082       .  S
O25         Cu33   2.027       .  S
O25          C35   1.280       .  A
O26         Cu33   2.023       .  S
O26          C36   1.280       .  A
O27         Cu33   2.011       .  S
O27          C37   1.279       .  A
O28         Cu33   2.012       .  S
O28          C38   1.277       .  A
O29         Cu34   2.012       .  S
O29          C38   1.279       .  A
O30         Cu34   2.013       .  S
O30          C37   1.277       .  A
O31         Cu34   2.015       .  S
O31          C36   1.278       .  A
O32         Cu34   2.014       .  S
O32          C35   1.277       .  A
Cu33        Cu34   2.373       .  S
C35         C637   1.483       .  S
C36         C662   1.481       .  S
C37         C633   1.478       .  S
C38         C629   1.477       .  S
N39          N40   1.322       .  A
N39          C43   1.346       .  A
N39         Cu47   2.081       .  S
N40          C41   1.345       .  A
N40         Cu46   2.073       .  S
C41          C42   1.385       .  A
C41          H44   1.082       .  S
C42          C43   1.387       .  A
C42         C610   1.481       .  S
C43          H45   1.082       .  S
Cu46         N49   2.073       .  S
Cu47         N57   2.081       .  S
Cu48         N50   2.078       .  S
Cu48         N56   2.078       .  S
N49          N50   1.322       .  A
N49          C53   1.344       .  A
N50          C51   1.347       .  A
C51          C52   1.387       .  A
C51          H54   1.081       .  S
C52          C53   1.381       .  A
C52         C634   1.477       .  S
C53          H55   1.082       .  S
N56          N57   1.322       .  A
N56          C60   1.345       .  A
N57          C58   1.347       .  A
C58          C59   1.386       .  A
C58          H61   1.082       .  S
C59          C60   1.386       .  A
C59         C620   1.482       .  S
C60          H62   1.082       .  S
N63          N64   1.324       .  A
N63          C67   1.345       .  A
N63         Cu71   2.077       .  S
N64          C65   1.347       .  A
N64         Cu70   2.088       .  S
C65          C66   1.385       .  A
C65          H68   1.082       .  S
C66          C67   1.382       .  A
C66         C590   1.477       .  S
C67          H69   1.082       .  S
Cu70         N73   2.086       .  S
Cu71         N81   2.077       .  S
Cu72         N74   2.065       .  S
Cu72         N80   2.064       .  S
N73          N74   1.322       .  A
N73          C77   1.348       .  A
N74          C75   1.343       .  A
C75          C76   1.379       .  A
C75          H78   1.082       .  S
C76          C77   1.389       .  A
C76         C630   1.477       .  S
C77          H79   1.082       .  S
N80          N81   1.320       .  A
N80          C84   1.342       .  A
N81          C82   1.347       .  A
C82          C83   1.388       .  A
C82          H85   1.082       .  S
C83          C84   1.384       .  A
C83         C600   1.481       .  S
C84          H86   1.082       .  S
N87          N88   1.324       .  A
N87          C91   1.347       .  A
N87         Cu95   2.082       .  S
N88          C89   1.346       .  A
N88         Cu94   2.085       .  S
C89          C90   1.384       .  A
C89          H92   1.082       .  S
C90          C91   1.385       .  A
C90         C580   1.478       .  S
C91          H93   1.082       .  S
Cu94         N97   2.085       .  S
Cu95        N105   2.082       .  S
Cu96         N98   2.078       .  S
Cu96        N104   2.078       .  S
N97          N98   1.322       .  A
N97         C101   1.348       .  A
N98          C99   1.346       .  A
C99         C100   1.384       .  A
C99         H102   1.082       .  S
C100        C101   1.389       .  A
C100        C638   1.484       .  S
C101        H103   1.081       .  S
N104        N105   1.323       .  A
N104        C108   1.344       .  A
N105        C106   1.348       .  A
C106        C107   1.386       .  A
C106        H109   1.082       .  S
C107        C108   1.383       .  A
C107        C570   1.479       .  S
C108        H110   1.082       .  S
N111        N112   1.324       .  A
N111        C115   1.346       .  A
N111       Cu119   2.084       .  S
N112        C113   1.346       .  A
N112       Cu118   2.085       .  S
C113        C114   1.385       .  A
C113        H116   1.082       .  S
C114        C115   1.385       .  A
C114        C556   1.481       .  S
C115        H117   1.082       .  S
Cu118       N121   2.084       .  S
Cu119       N129   2.083       .  S
Cu120       N122   2.074       .  S
Cu120       N128   2.074       .  S
N121        N122   1.322       .  A
N121        C125   1.349       .  A
N122        C123   1.344       .  A
C123        C124   1.381       .  A
C123        H126   1.082       .  S
C124        C125   1.388       .  A
C124        C565   1.479       .  S
C125        H127   1.082       .  S
N128        N129   1.321       .  A
N128        C132   1.345       .  A
N129        C130   1.348       .  A
C130        C131   1.388       .  A
C130        H133   1.082       .  S
C131        C132   1.385       .  A
C131        C655   1.484       .  S
C132        H134   1.082       .  S
O135       Cu143   2.011       .  S
O135        C145   1.277       .  A
O136       Cu143   2.012       .  S
O136        C146   1.277       .  A
O137       Cu143   2.013       .  S
O137        C147   1.277       .  A
O138       Cu143   2.013       .  S
O138        C148   1.279       .  A
O139       Cu144   2.014       .  S
O139        C148   1.277       .  A
O140       Cu144   2.013       .  S
O140        C147   1.279       .  A
O141       Cu144   2.012       .  S
O141        C146   1.279       .  A
O142       Cu144   2.016       .  S
O142        C145   1.279       .  A
Cu143      Cu144   2.374       .  S
C145        C543   1.478       .  S
C146        C548   1.476       .  S
C147        C551   1.478       .  S
C148        C566   1.479       .  S
N149        N150   1.323       .  A
N149        C153   1.346       .  A
N149       Cu157   2.081       .  S
N150        C151   1.346       .  A
N150       Cu156   2.078       .  S
C151        C152   1.384       .  A
C151        H154   1.082       .  S
C152        C153   1.384       .  A
C152        C534   1.477       .  S
C153        H155   1.082       .  S
Cu156       N159   2.078       .  S
Cu157       N167   2.081       .  S
Cu158       N160   2.078       .  S
Cu158       N166   2.078       .  S
N159        N160   1.322       .  A
N159        C163   1.345       .  A
N160        C161   1.346       .  A
C161        C162   1.387       .  A
C161        H164   1.082       .  S
C162        C163   1.383       .  A
C162        C544   1.480       .  S
C163        H165   1.082       .  S
N166        N167   1.322       .  A
N166        C170   1.345       .  A
N167        C168   1.347       .  A
C168        C169   1.387       .  A
C168        H171   1.082       .  S
C169        C170   1.386       .  A
C169        C623   1.484       .  S
C170        H172   1.082       .  S
N173        N174   1.322       .  A
N173        C177   1.345       .  A
N173       Cu181   2.072       .  S
N174        C175   1.343       .  A
N174       Cu180   2.071       .  S
C175        C176   1.385       .  A
C175        H178   1.082       .  S
C176        C177   1.384       .  A
C176        C603   1.478       .  S
C177        H179   1.082       .  S
Cu180       N183   2.071       .  S
Cu181       N191   2.072       .  S
Cu182       N184   2.079       .  S
Cu182       N190   2.079       .  S
N183        N184   1.322       .  A
N183        C187   1.346       .  A
N184        C185   1.345       .  A
C185        C186   1.382       .  A
C185        H188   1.082       .  S
C186        C187   1.386       .  A
C186        C547   1.478       .  S
C187        H189   1.081       .  S
N190        N191   1.322       .  A
N190        C194   1.346       .  A
N191        C192   1.344       .  A
C192        C193   1.384       .  A
C192        H195   1.082       .  S
C193        C194   1.385       .  A
C193        C524   1.477       .  S
C194        H196   1.082       .  S
N197        N198   1.321       .  A
N197        C201   1.346       .  A
N197       Cu205   2.074       .  S
N198        C199   1.345       .  A
N198       Cu204   2.068       .  S
C199        C200   1.384       .  A
C199        H202   1.082       .  S
C200        C201   1.385       .  A
C200        C514   1.475       .  S
C201        H203   1.082       .  S
Cu204       N207   2.069       .  S
Cu205       N215   2.075       .  S
Cu206       N208   2.087       .  S
Cu206       N214   2.087       .  S
N207        N208   1.324       .  A
N207        C211   1.343       .  A
N208        C209   1.348       .  A
C209        C210   1.388       .  A
C209        H212   1.082       .  S
C210        C211   1.379       .  A
C210        C552   1.477       .  S
C211        H213   1.082       .  S
N214        N215   1.323       .  A
N214        C218   1.348       .  A
N215        C216   1.345       .  A
C216        C217   1.382       .  A
C216        H219   1.082       .  S
C217        C218   1.386       .  A
C217        C583   1.476       .  S
C218        H220   1.082       .  S
O221       Cu229   2.012   1_455  S
O221        C231   1.277       .  A
O222       Cu229   2.013       .  S
O222        C232   1.279       .  A
O223       Cu229   2.020   1_455  S
O223        C233   1.279       .  A
O224       Cu229   2.020       .  S
O224        C234   1.279       .  A
O225       Cu230   2.006       .  S
O225        C234   1.278       .  A
O226       Cu230   2.009   1_455  S
O226        C233   1.278       .  A
O227       Cu230   2.015       .  S
O227        C232   1.278       .  A
O228       Cu230   2.016   1_455  S
O228        C231   1.280       .  A
Cu229      Cu230   2.373       .  S
C231        C505   1.479       .  S
C232        C501   1.479       .  S
C233        C497   1.480       .  S
C234        C510   1.478       .  S
N235        N236   1.321       .  A
N235        C239   1.346       .  A
N235       Cu243   2.074       .  S
N236        C237   1.344       .  A
N236       Cu242   2.072       .  S
C237        C238   1.385       .  A
C237        H240   1.082       .  S
C238        C239   1.385       .  A
C238        C491   1.479       .  S
C239        H241   1.082       .  S
Cu242       N245   2.072       .  S
Cu243       N253   2.074       .  S
Cu244       N246   2.088       .  S
Cu244       N252   2.089       .  S
N245        N246   1.322       .  A
N245        C249   1.346       .  A
N246        C247   1.347       .  A
C247        C248   1.385       .  A
C247        H250   1.082       .  S
C248        C249   1.385       .  A
C248        C498   1.480       .  S
C249        H251   1.081       .  S
N252        N253   1.323       .  A
N252        C256   1.348       .  A
N253        C254   1.345       .  A
C254        C255   1.383       .  A
C254        H257   1.082       .  S
C255        C256   1.386       .  A
C255        C559   1.479       .  S
C256        H258   1.082       .  S
N259        N260   1.323       .  A
N259        C263   1.345       .  A
N259       Cu267   2.076       .  S
N260        C261   1.348       .  A
N260       Cu266   2.089       .  S
C261        C262   1.386       .  A
C261        H264   1.082       .  S
C262        C263   1.383       .  A
C262        C478   1.478       .  S
C263        H265   1.082       .  S
Cu266       N269   2.090       .  S
Cu267       N277   2.075       .  S
Cu268       N270   2.070       .  S
Cu268       N276   2.070       .  S
N269        N270   1.323       .  A
N269        C273   1.348       .  A
N270        C271   1.343       .  A
C271        C272   1.380       .  A
C271        H274   1.082       .  S
C272        C273   1.389       .  A
C272        C506   1.479       .  S
C273        H275   1.081       .  S
N276        N277   1.321       .  A
N276        C280   1.345       .  A
N277        C278   1.345       .  A
C278        C279   1.385       .  A
C278        H281   1.082       .  S
C279        C280   1.385       .  A
C279        C527   1.478       .  S
C280        H282   1.082       .  S
N283        N284   1.322       .  A
N283        C287   1.348       .  A
N283       Cu291   2.083       .  S
N284        C285   1.343       .  A
N284       Cu290   2.068       .  S
C285        C286   1.383       .  A
C285        H288   1.082       .  S
C286        C287   1.388       .  A
C286        C468   1.480       .  S
C287        H289   1.082       .  S
Cu290       N293   2.068       .  S
Cu291       N301   2.084       .  S
Cu292       N294   2.085       .  S
Cu292       N300   2.085       .  S
N293        N294   1.322       .  A
N293        C297   1.343       .  A
N294        C295   1.348       .  A
C295        C296   1.389       .  A
C295        H298   1.082       .  S
C296        C297   1.381       .  A
C296        C502   1.479       .  S
C297        H299   1.083       .  S
N300        N301   1.324       .  A
N300        C304   1.347       .  A
N301        C302   1.346       .  A
C302        C303   1.384       .  A
C302        H305   1.082       .  S
C303        C304   1.385       .  A
C303        C537   1.480       .  S
C304        H306   1.082       .  S
N307        N308   1.321       .  A
N307        C311   1.346       .  A
N307       Cu315   2.075       .  S
N308        C309   1.344       .  A
N308       Cu314   2.070       .  S
C309        C310   1.386       .  A
C309        H312   1.082       .  S
C310        C311   1.387       .  A
C310        C458   1.482       .  S
C311        H313   1.082       .  S
Cu314       N317   2.070       .  S
Cu315       N325   2.076       .  S
Cu316       N318   2.085       .  S
Cu316       N324   2.084       .  S
N317        N318   1.323       .  A
N317        C321   1.345       .  A
N318        C319   1.346       .  A
C319        C320   1.384       .  A
C319        H322   1.082       .  S
C320        C321   1.384       .  A
C320        C509   1.478       .  S
C321        H323   1.082       .  S
N324        N325   1.324       .  A
N324        C328   1.348       .  A
N325        C326   1.344       .  A
C326        C327   1.382       .  A
C326        H329   1.082       .  S
C327        C328   1.385       .  A
C327        C517   1.477       .  S
C328        H330   1.082       .  S
O331       Cu339   2.013   1_455  S
O331        C341   1.279       .  A
O332       Cu339   2.018       .  S
O332        C342   1.279       .  A
O333       Cu339   2.019       .  S
O333        C343   1.279       .  A
O334       Cu339   2.024   1_455  S
O334        C344   1.280       .  A
O335       Cu340   2.008   1_455  S
O335        C344   1.277       .  A
O336       Cu340   2.008       .  S
O336        C343   1.278       .  A
O337       Cu340   2.013       .  S
O337        C342   1.277       .  A
O338       Cu340   2.008   1_455  S
O338        C341   1.277       .  A
Cu339      Cu340   2.374       .  S
C341        C445   1.474       .  S
C342        C453   1.480       .  S
C343        C449   1.478       .  S
C344        C441   1.479       .  S
N345        N346   1.323       .  A
N345        C349   1.347       .  A
N345       Cu353   2.081       .  S
N346        C347   1.345       .  A
N346       Cu352   2.078       .  S
C347        C348   1.383       .  A
C347        H350   1.082       .  S
C348        C349   1.385       .  A
C348        C481   1.477       .  S
C349        H351   1.082       .  S
Cu352       N355   2.077       .  S
Cu353       N363   2.081       .  S
Cu354       N356   2.083       .  S
Cu354       N362   2.083       .  S
N355        N356   1.322       .  A
N355        C359   1.346       .  A
N356        C357   1.347       .  A
C357        C358   1.389       .  A
C357        H360   1.081       .  S
C358        C359   1.383       .  A
C358        C442   1.483       .  S
C359        H361   1.082       .  S
N362        N363   1.323       .  A
N362        C366   1.346       .  A
N363        C364   1.346       .  A
C364        C365   1.385       .  A
C364        H367   1.082       .  S
C365        C366   1.385       .  A
C365        C593   1.480       .  S
C366        H368   1.082       .  S
N369        N370   1.322       .  A
N369        C373   1.347       .  A
N369       Cu377   2.086       .  S
N370        C371   1.343       .  A
N370       Cu376   2.070       .  S
C371        C372   1.384       .  A
C371        H374   1.082       .  S
C372        C373   1.388       .  A
C372        C488   1.482   1_556  S
C373        H375   1.082       .  S
Cu376       N379   2.070       .  S
Cu377       N387   2.087       .  S
Cu378       N380   2.071       .  S
Cu378       N386   2.071       .  S
N379        N380   1.321       .  A
N379        C383   1.345       .  A
N380        C381   1.344       .  A
C381        C382   1.386       .  A
C381        H384   1.081       .  S
C382        C383   1.383       .  A
C382        C446   1.477       .  S
C383        H385   1.082       .  S
N386        N387   1.322       .  A
N386        C390   1.345       .  A
N387        C388   1.348       .  A
C388        C389   1.387       .  A
C388        H391   1.082       .  S
C389        C390   1.384       .  A
C389        C645   1.480       .  S
C390        H392   1.082       .  S
N393        N394   1.321       .  A
N393        C397   1.345       .  A
N393       Cu401   2.072       .  S
N394        C395   1.345       .  A
N394       Cu400   2.074       .  S
C395        C396   1.387       .  A
C395        H398   1.081       .  S
C396        C397   1.386       .  A
C396        C471   1.482       .  S
C397        H399   1.082       .  S
Cu400       N403   2.074       .  S
Cu401       N411   2.073       .  S
Cu402       N404   2.084       .  S
Cu402       N410   2.083       .  S
N403        N404   1.323       .  A
N403        C407   1.345       .  A
N404        C405   1.346       .  A
C405        C406   1.384       .  A
C405        H408   1.082       .  S
C406        C407   1.385       .  A
C406        C450   1.479       .  S
C407        H409   1.081       .  S
N410        N411   1.323       .  A
N410        C414   1.347       .  A
N411        C412   1.344       .  A
C412        C413   1.383       .  A
C412        H415   1.082       .  S
C413        C414   1.386       .  A
C413        C613   1.478       .  S
C414        H416   1.082       .  S
N417        N418   1.324       .  A
N417        C421   1.346       .  A
N417       Cu425   2.081       .  S
N418        C419   1.347       .  A
N418       Cu424   2.085       .  S
C419        C420   1.385       .  A
C419        H422   1.082       .  S
C420        C421   1.384       .  A
C420        C573   1.479       .  S
C421        H423   1.082       .  S
Cu424       N427   2.085       .  S
Cu425       N435   2.081       .  S
Cu426       N428   2.076       .  S
Cu426       N434   2.075       .  S
N427        N428   1.322       .  A
N427        C431   1.348       .  A
N428        C429   1.345       .  A
C429        C430   1.382       .  A
C429        H432   1.082       .  S
C430        C431   1.388       .  A
C430        C454   1.481       .  S
C431        H433   1.082       .  S
N434        N435   1.322       .  A
N434        C438   1.345       .  A
N435        C436   1.347       .  A
C436        C437   1.387       .  A
C436        H439   1.082       .  S
C437        C438   1.385       .  A
C437        C461   1.481       .  S
C438        H440   1.082       .  S
C441        C442   1.345       .  D
C441        H443   1.086       .  S
C442        H444   1.087       .  S
C445        C446   1.343       .  D
C445        H447   1.086       .  S
C446        H448   1.087       .  S
C449        C450   1.346       .  D
C449        H451   1.086       .  S
C450        H452   1.087       .  S
C453        C454   1.345       .  D
C453        H455   1.086       .  S
C454        H456   1.086       .  S
C457        C458   1.405       .  A
C457        C462   1.398   1_554  A
C457        H463   1.083       .  S
C458        C459   1.405       .  A
C459        C460   1.400   1_554  A
C459        H464   1.083       .  S
C460        C461   1.404       .  A
C460        H465   1.083       .  S
C461        C462   1.405       .  A
C462        H466   1.083       .  S
C467        C468   1.404   1_556  A
C467        C472   1.397       .  A
C467        H473   1.083   1_556  S
C468        C469   1.404   1_554  A
C469        C470   1.401       .  A
C469        H474   1.083       .  S
C470        C471   1.407   1_565  A
C470        H475   1.082       .  S
C471        C472   1.404   1_545  A
C472        H476   1.082   1_565  S
C477        C478   1.404   1_556  A
C477        C482   1.402       .  A
C477        H483   1.083       .  S
C478        C479   1.404       .  A
C479        C480   1.399   1_554  A
C479        H484   1.083       .  S
C480        C481   1.403       .  A
C480        H485   1.083   1_556  S
C481        C482   1.405       .  A
C482        H486   1.083       .  S
C487        C488   1.405   1_565  A
C487        C492   1.401       .  A
C487        H493   1.083   1_565  S
C488        C489   1.405   1_545  A
C489        C490   1.396       .  A
C489        H494   1.082   1_565  S
C490        C491   1.403       .  A
C490        H495   1.083       .  S
C491        C492   1.405       .  A
C492        H496   1.083       .  S
C497        C498   1.346       .  D
C497        H499   1.086       .  S
C498        H500   1.087       .  S
C501        C502   1.344       .  D
C501        H503   1.086       .  S
C502        H504   1.087       .  S
C505        C506   1.343       .  D
C505        H507   1.086       .  S
C506        H508   1.087       .  S
C509        C510   1.346       .  D
C509        H511   1.086       .  S
C510        H512   1.086       .  S
C513        C514   1.404       .  A
C513        C518   1.400       .  A
C513        H519   1.083       .  S
C514        C515   1.403       .  A
C515        C516   1.398       .  A
C515        H520   1.083       .  S
C516        C517   1.404       .  A
C516        H521   1.083       .  S
C517        C518   1.404       .  A
C518        H522   1.083       .  S
C523        C524   1.404       .  A
C523        C528   1.398       .  A
C523        H529   1.083       .  S
C524        C525   1.404       .  A
C525        C526   1.400       .  A
C525        H530   1.083       .  S
C526        C527   1.405       .  A
C526        H531   1.083       .  S
C527        C528   1.403       .  A
C528        H532   1.083       .  S
C533        C534   1.404       .  A
C533        C538   1.400       .  A
C533        H539   1.083       .  S
C534        C535   1.403       .  A
C535        C536   1.400       .  A
C535        H540   1.083       .  S
C536        C537   1.405       .  A
C536        H541   1.083       .  S
C537        C538   1.405       .  A
C538        H542   1.083       .  S
C543        C544   1.344       .  D
C543        H545   1.086       .  S
C544        H546   1.087       .  S
C547        C548   1.344       .  D
C547        H549   1.087       .  S
C548        H550   1.086       .  S
C551        C552   1.343       .  D
C551        H553   1.086       .  S
C552        H554   1.087       .  S
C555        C556   1.405       .  A
C555        C560   1.399       .  A
C555        H561   1.083       .  S
C556        C557   1.406       .  A
C557        C558   1.401       .  A
C557        H562   1.083       .  S
C558        C559   1.404       .  A
C558        H563   1.083       .  S
C559        C560   1.404       .  A
C560        H564   1.083       .  S
C565        C566   1.344       .  D
C565        H567   1.087       .  S
C566        H568   1.086       .  S
C569        C570   1.404       .  A
C569        C574   1.399       .  A
C569        H575   1.083       .  S
C570        C571   1.404       .  A
C571        C572   1.402       .  A
C571        H576   1.083       .  S
C572        C573   1.405       .  A
C572        H577   1.083       .  S
C573        C574   1.403       .  A
C574        H578   1.083       .  S
C579        C580   1.405       .  A
C579        C584   1.401       .  A
C579        H585   1.083       .  S
C580        C581   1.404       .  A
C581        C582   1.399       .  A
C581        H586   1.083       .  S
C582        C583   1.404       .  A
C582        H587   1.083       .  S
C583        C584   1.403       .  A
C584        H588   1.083       .  S
C589        C590   1.404       .  A
C589        C594   1.400       .  A
C589        H595   1.083       .  S
C590        C591   1.403       .  A
C591        C592   1.400       .  A
C591        H596   1.083       .  S
C592        C593   1.405       .  A
C592        H597   1.083       .  S
C593        C594   1.405       .  A
C594        H598   1.083       .  S
C599        C600   1.405       .  A
C599        C604   1.400       .  A
C599        H605   1.083       .  S
C600        C601   1.405       .  A
C601        C602   1.395       .  A
C601        H606   1.082       .  S
C602        C603   1.403       .  A
C602        H607   1.083       .  S
C603        C604   1.405       .  A
C604        H608   1.083       .  S
C609        C610   1.405       .  A
C609        C614   1.398       .  A
C609        H615   1.082       .  S
C610        C611   1.406       .  A
C611        C612   1.400       .  A
C611        H616   1.082       .  S
C612        C613   1.403       .  A
C612        H617   1.083       .  S
C613        C614   1.404       .  A
C614        H618   1.083       .  S
C619        C620   1.405   1_565  A
C619        C624   1.401       .  A
C619        H625   1.083   1_565  S
C620        C621   1.404   1_545  A
C621        C622   1.398       .  A
C621        H626   1.083   1_565  S
C622        C623   1.405       .  A
C622        H627   1.082       .  S
C623        C624   1.406       .  A
C624        H628   1.083       .  S
C629        C630   1.343       .  D
C629        H631   1.086       .  S
C630        H632   1.087       .  S
C633        C634   1.344       .  D
C633        H635   1.086       .  S
C634        H636   1.086       .  S
C637        C638   1.346       .  D
C637        H639   1.086       .  S
C638        H640   1.087       .  S
C641        C642   1.405       .  A
C641        C646   1.401       .  A
C641        H647   1.083       .  S
C642        C643   1.405       .  A
C643        C644   1.399       .  A
C643        H648   1.083       .  S
C644        C645   1.405       .  A
C644        H649   1.083       .  S
C645        C646   1.404       .  A
C646        H650   1.083       .  S
C651        C652   1.405   1_565  A
C651        C656   1.399       .  A
C651        H657   1.082   1_565  S
C652        C653   1.406   1_545  A
C653        C654   1.402       .  A
C653        H658   1.083       .  S
C654        C655   1.405       .  A
C654        H659   1.083       .  S
C655        C656   1.405       .  A
C656        H660   1.083       .  S
C661        C662   1.346       .  D
C661        H663   1.086       .  S
C662        H664   1.086       .  S
