geometry optimzed in LAMMPS
_audit_creation_date              2020-11-30 
_audit_creation_method            'lammps2cif' 
_symmetry_space_group_name_H-M    'P1' 
_symmetry_Int_Tables_number       1 
_symmetry_cell_setting            triclinic 
loop_ 
_symmetry_equiv_pos_as_xyz 
  x,y,z 
_cell_length_a                    33.79660712 
_cell_length_b                    34.863641971137 
_cell_length_c                    33.63071002700598 
_cell_angle_alpha                 89.59401288400267 
_cell_angle_beta                  87.94719375896918 
_cell_angle_gamma                 120.03881305901221 
loop_ 
_atom_site_label 
_atom_site_type_symbol 
_atom_site_fract_x 
_atom_site_fract_y 
_atom_site_fract_z 
_atom_site_charge 
C1          C  0.58963689  0.80697163  0.09713511    -0.01900
N2          N  0.52784128  0.95870379  0.32714392    -0.02900
C3          C  0.51516367  0.99026118  0.32224904    -0.00300
C4          C  0.48826665  0.98877249  0.35497016    -0.23200
C5          C  0.48752355  0.95934901  0.38196941    -0.23400
C6          C  0.51239629  0.94150469  0.36512443    -0.00400
H7          H  0.47738982  0.01243895  0.36178513     0.13400
H8          H  0.47352726  0.95469278  0.41221298     0.13400
N9          N  0.34393005  0.71240239  0.34890154    -0.02900
C10         C  0.38927650  0.72869180  0.35606380    -0.00300
C11         C  0.39704114  0.73908604  0.39573849    -0.23200
C12         C  0.35685691  0.73057792  0.41369859    -0.23400
C13         C  0.32469722  0.71369671  0.38512462    -0.00400
H14         H  0.42852132  0.74978807  0.41061478     0.13400
H15         H  0.35073652  0.73277252  0.44519348     0.13400
C16         C  0.12049497  0.61003322  0.12435817    -0.01900
C17         C  0.43819563  0.14127715  0.06394868    -0.01900
N18         N  0.30972316  0.93265816  0.31020527    -0.02900
C19         C  0.29083256  0.88883057  0.32230712    -0.00300
C20         C  0.30783690  0.88608685  0.35842829    -0.19400
C21         C  0.33637252  0.92823633  0.36984165    -0.23400
C22         C  0.33650329  0.95597560  0.34043824    -0.00400
H23         H  0.29724632  0.85639207  0.37645288     0.13400
H24         H  0.35243952  0.93781322  0.39814262     0.13400
N25         N  0.05463154  0.25231958  0.19717706    -0.26700
N26         N  0.00993805  0.22760148  0.19404496    -0.34600
C27         C  0.99235743  0.25405402  0.18739433     0.01600
C28         C  0.02769492  0.29756696  0.18669671     0.07700
C29         C  0.06669667  0.29515694  0.19275891    -0.05400
H30         H  0.95704610  0.24236911  0.18089009     0.08300
H31         H  0.10160997  0.32243765  0.19176046     0.09500
Cu32       Cu  0.97651934  0.15932814  0.19225388     0.44200
Cu33       Cu  0.09788973  0.22666148  0.20110708     0.42000
Cu34       Cu  0.04563621  0.10719630  0.19146869     0.43900
N35         N  0.95212070  0.09369285  0.17917337    -0.34100
N36         N  0.97723479  0.07437129  0.17805748    -0.28300
C37         C  0.95254603  0.03362403  0.16324939    -0.04400
C38         C  0.91025361  0.02757917  0.15396049     0.07800
C39         C  0.91092562  0.06592588  0.16531485     0.01600
H40         H  0.96523888  0.01107042  0.15777857     0.09200
H41         H  0.88405928  0.07389099  0.16214598     0.08300
N42         N  0.11507039  0.14984692  0.19682918    -0.35500
N43         N  0.13412683  0.19331760  0.19945658    -0.27700
C44         C  0.17982449  0.21173532  0.19573326    -0.03000
C45         C  0.19008258  0.17825273  0.19100342     0.05700
C46         C  0.14818889  0.13949774  0.19166260     0.03700
H47         H  0.20362122  0.24703624  0.19352850     0.08900
H48         H  0.14213070  0.10671306  0.18503977     0.07700
C49         C  0.68567497  0.73025454  0.30661672    -0.01900
N50         N  0.83212310  0.66405276  0.07024221    -0.02900
C51         C  0.86919433  0.65821988  0.07126806    -0.00300
C52         C  0.89083798  0.66703277  0.03398390    -0.23200
C53         C  0.86680000  0.67866536  0.00924940    -0.23400
C54         C  0.83119043  0.67695210  0.03214541    -0.00400
H55         H  0.92151423  0.66593786  0.02587803     0.13400
H56         H  0.87463028  0.68772472  0.97793785     0.13400
C57         C  0.55059742  0.28821842  0.28430919    -0.01900
N58         N  0.56785360  0.48073076  0.04324873    -0.02900
C59         C  0.56794775  0.52016331  0.04406259    -0.00300
C60         C  0.56984199  0.53609019  0.00593527    -0.23200
C61         C  0.57245440  0.50728090  0.98044006    -0.23400
C62         C  0.57082406  0.47353628  0.00339510    -0.00400
H63         H  0.57033024  0.56639689  0.99765143     0.13400
H64         H  0.56435034  0.50413228  0.44822429     0.13400
C65         C  0.00942845  0.57883411  0.35477280    -0.01900
N66         N  0.77965728  0.45933496  0.09236519    -0.02900
C67         C  0.73739428  0.42277048  0.10180982    -0.00300
C68         C  0.72184382  0.42659006  0.13900033    -0.23200
C69         C  0.75391657  0.46546743  0.15351143    -0.23400
C70         C  0.78919228  0.48572934  0.12485428    -0.00400
H71         H  0.69125988  0.40214166  0.15509956     0.13400
H72         H  0.75285739  0.47492025  0.18384073     0.13400
N73         N  0.16678765  0.21264182  0.36148759    -0.26700
N74         N  0.15305327  0.17500416  0.34294218    -0.34600
C75         C  0.18862951  0.16793452  0.33818818     0.01600
C76         C  0.22622564  0.20233411  0.35532136     0.07700
C77         C  0.21116098  0.23020562  0.36942239    -0.05400
H78         H  0.18749225  0.14030930  0.32272441     0.08300
H79         H  0.23157300  0.26202038  0.38275576     0.09500
Cu80       Cu  0.08674421  0.13616480  0.32413433     0.44200
Cu81       Cu  0.12690613  0.24194043  0.37042515     0.42000
Cu82       Cu  0.01967534  0.19099487  0.32133320     0.43900
N83         N  0.01819796  0.10471365  0.31013984    -0.34100
N84         N  0.99427358  0.12507348  0.30771669    -0.28300
C85         C  0.95085654  0.09527324  0.29977012    -0.04400
C86         C  0.94660739  0.05354612  0.29785773     0.07800
C87         C  0.99042309  0.06130635  0.30428459     0.01600
H88         H  0.92475498  0.10402044  0.29630369     0.09200
H89         H  0.00102565  0.03681353  0.30628034     0.08300
N90         N  0.04796298  0.25270557  0.34672312    -0.35500
N91         N  0.08615251  0.27059852  0.36628986    -0.27700
C92         C  0.09476974  0.31034269  0.37941151    -0.03000
C93         C  0.06016948  0.31756090  0.36763369     0.05700
C94         C  0.03141217  0.28062156  0.34664574     0.03700
H95         H  0.12478546  0.33295292  0.39505129     0.08900
H96         H  0.00096597  0.27472791  0.33196421     0.07700
C97         C  0.07127237  0.51241377  0.38203557    -0.21900
C98         C  0.03558926  0.46934772  0.37695582     0.10100
C99         C  0.99089541  0.46168241  0.37404927     0.10500
C100        C  0.98413853  0.49796577  0.36987736    -0.16800
C101        C  0.02116181  0.54218415  0.36687680    -0.27200
C102        C  0.06420099  0.54885301  0.38029874     0.18800
C103        C  0.04554510  0.43266794  0.37459955     0.12800
C104        C  0.95054169  0.41526274  0.37383724    -0.11600
H105        H  0.94977240  0.49139427  0.36531953     0.13100
C106        C  0.10268757  0.59174860  0.39560050    -0.22400
H107        H  0.10488973  0.51751002  0.38796343     0.08700
C108        C  0.05149133  0.41721338  0.33744441     0.05000
C109        C  0.05675147  0.37984542  0.33635706    -0.19600
C110        C  0.05723381  0.35820583  0.37150643    -0.11900
C111        C  0.05331669  0.37495191  0.40880511     0.13800
C112        C  0.04748340  0.41208835  0.40980418    -0.22400
C113        C  0.05210612  0.44000568  0.29896914    -0.05400
H114        H  0.06034844  0.36727297  0.30785936     0.15300
C115        C  0.05322075  0.35371674  0.44802329    -0.15600
H116        H  0.04323063  0.42440119  0.43822523     0.09600
H117        H  0.12822645  0.61197689  0.37164651     0.07500
H118        H  0.12163916  0.58454068  0.41796636     0.08700
H119        H  0.09034036  0.61154253  0.41149098     0.07700
H120        H  0.94842953  0.39735755  0.40197755     0.02600
H121        H  0.95440962  0.39722740  0.34830916     0.03100
H122        H  0.91782441  0.41517847  0.37125052     0.06600
H123        H  0.05825050  0.42423116  0.27269419     0.05600
H124        H  0.07974609  0.47527202  0.29873425    -0.00200
H125        H  0.01873008  0.43829379  0.29584124     0.01300
H126        H  0.08251358  0.37777974  0.46518293     0.04900
H127        H  0.05573187  0.32344218  0.44471877     0.06900
H128        H  0.02094070  0.34425533  0.46544118     0.07700
C129        C  0.89180970  0.53291094  0.41824583    -0.21900
C130        C  0.90617514  0.53163722  0.45630707     0.10100
C131        C  0.95354766  0.55090661  0.46120564     0.10500
C132        C  0.98497314  0.57346063  0.42881785    -0.16800
C133        C  0.97162668  0.57197825  0.38889898    -0.27200
C134        C  0.92240986  0.55122797  0.38453825     0.18800
C135        C  0.87078362  0.51096024  0.49038033     0.12800
C136        C  0.97125479  0.54395283  0.49947616    -0.11600
H137        H  0.02067228  0.58734774  0.43414824     0.13100
C138        C  0.89855658  0.54510688  0.34588311    -0.22400
H139        H  0.85522104  0.51702968  0.41469215     0.08700
C140        C  0.84372945  0.52956741  0.50312071     0.05000
C141        C  0.81259371  0.51066330  0.53615978    -0.19600
C142        C  0.80571492  0.47370210  0.05440719    -0.11900
C143        C  0.83202279  0.45529534  0.03927586     0.13800
C144        C  0.86340273  0.47610829  0.00639344    -0.22400
C145        C  0.84831537  0.57020724  0.48264856    -0.05400
H146        H  0.79317559  0.52596872  0.54654333     0.15300
C147        C  0.82851516  0.41471954  0.05856091    -0.15600
H148        H  0.88329632  0.46168321  0.99512259     0.09600
H149        H  0.90699809  0.57756621  0.33266029     0.07500
H150        H  0.86068347  0.52710739  0.35014407     0.08700
H151        H  0.90551774  0.52434306  0.32538676     0.07700
H152        H  0.96260385  0.50885466  0.50232637     0.02600
H153        H  0.95523594  0.55115804  0.52534899     0.03100
H154        H  0.00902756  0.56492147  0.50038216     0.06600
H155        H  0.82663735  0.58170305  0.49795503     0.05600
H156        H  0.83709865  0.56291921  0.45170277    -0.00200
H157        H  0.88449810  0.59732164  0.48224101     0.01300
H158        H  0.79366802  0.38628340  0.05521203     0.04900
H159        H  0.83596169  0.42032487  0.09051112     0.06900
H160        H  0.85316595  0.40607587  0.04451622     0.07700
C161        C  0.88290015  0.58322033  0.20706939    -0.21900
C162        C  0.93108006  0.57576074  0.19882320     0.10100
C163        C  0.93196932  0.54371951  0.15652408     0.10500
C164        C  0.88403863  0.51855612  0.12542036    -0.16800
C165        C  0.83468110  0.52318726  0.13608620    -0.27200
C166        C  0.83525552  0.55727008  0.17677407     0.18800
C167        C  0.95708051  0.57985003  0.23508337     0.12800
C168        C  0.96724311  0.53074263  0.14944982    -0.11600
H169        H  0.88345317  0.49636674  0.10299315     0.13100
C170        C  0.79512931  0.56199393  0.18939177    -0.22400
H171        H  0.87968182  0.59889628  0.23363958     0.08700
C172        C  0.96890210  0.61407238  0.26241983     0.05000
C173        C  0.98422258  0.61059609  0.29969284    -0.19600
C174        C  0.99006201  0.57462695  0.31180208    -0.11900
C175        C  0.98082054  0.54155645  0.28218817     0.13800
C176        C  0.96252013  0.54412068  0.24601586    -0.22400
C177        C  0.96641478  0.65534228  0.25380906    -0.05400
H178        H  0.99095727  0.63665230  0.32042249     0.15300
C179        C  0.99092338  0.50398039  0.28440623    -0.15600
H180        H  0.95064530  0.51633129  0.22655332     0.09600
H181        H  0.80543275  0.59760601  0.18830208     0.07500
H182        H  0.78392766  0.54891090  0.22040366     0.08700
H183        H  0.76617651  0.54385182  0.17013434     0.07700
H184        H  0.97974518  0.53926437  0.11803090     0.02600
H185        H  0.99594478  0.54785115  0.16934794     0.03100
H186        H  0.95144557  0.49438945  0.15418127     0.06600
H187        H  0.00036742  0.68504256  0.25804393     0.05600
H188        H  0.94086961  0.65648805  0.27473237    -0.00200
H189        H  0.95732900  0.65759110  0.22296770     0.01300
H190        H  0.96142927  0.47423281  0.29879720     0.04900
H191        H  0.02361520  0.51351940  0.29821336     0.06900
H192        H  0.99561089  0.49369634  0.25418598     0.07700
C193        C  0.34824472  0.23805814  0.38208874    -0.21900
C194        C  0.36763140  0.23779774  0.34469784     0.10100
C195        C  0.33985542  0.22287483  0.31148309     0.10500
C196        C  0.29339385  0.21003195  0.31620180    -0.16800
C197        C  0.27403515  0.21149927  0.35338869    -0.27200
C198        C  0.30158109  0.22450109  0.38702371     0.18800
C199        C  0.41719701  0.25365994  0.34026968     0.12800
C200        C  0.35948413  0.22102675  0.27100987    -0.11600
H201        H  0.27237692  0.20012688  0.29046703     0.13100
C202        C  0.28282008  0.22317314  0.42866921    -0.22400
H203        H  0.36963882  0.24875453  0.40759468     0.08700
C204        C  0.44870815  0.29752465  0.32826096     0.05000
C205        C  0.49315061  0.30831609  0.31583195    -0.19600
C206        C  0.50583482  0.27533416  0.31111542    -0.11900
C207        C  0.47758508  0.23477469  0.33398329     0.13800
C208        C  0.43267558  0.22377233  0.34577192    -0.22400
C209        C  0.43475579  0.33230720  0.32644587    -0.05400
H210        H  0.51588653  0.34168524  0.30457260     0.15300
C211        C  0.49121236  0.20198742  0.34830941    -0.15600
H212        H  0.40917414  0.19120233  0.35879674     0.09600
H213        H  0.29910679  0.25723440  0.44025428     0.07500
H214        H  0.29070152  0.20231916  0.44828012     0.08700
H215        H  0.24522359  0.20876045  0.43050174     0.07700
H216        H  0.37339030  0.19819151  0.27239259     0.02600
H217        H  0.38737092  0.25454935  0.26124392     0.03100
H218        H  0.33323935  0.20899784  0.24819313     0.06600
H219        H  0.46368873  0.36508435  0.31612183     0.05600
H220        H  0.42261847  0.33601550  0.35651037    -0.00200
H221        H  0.40681394  0.32243750  0.30549686     0.01300
H222        H  0.48784476  0.19961874  0.38123659     0.04900
H223        H  0.52651656  0.21042888  0.34129270     0.06900
H224        H  0.46814980  0.16876990  0.33641516     0.07700
C225        C  0.54818164  0.38272464  0.42740806    -0.21900
C226        C  0.59246863  0.38951566  0.42159268     0.10100
C227        C  0.62639278  0.41730408  0.44779452     0.10500
C228        C  0.61662156  0.43860095  0.98246891    -0.16800
C229        C  0.57420953  0.43718706  0.98349243    -0.27200
C230        C  0.53773191  0.40579184  0.45607083     0.18800
C231        C  0.60204477  0.37024968  0.38522590     0.12800
C232        C  0.67440321  0.42537926  0.44272047    -0.11600
H233        H  0.64214459  0.45960821  0.00299098     0.13100
C234        C  0.49076612  0.40080078  0.45513576    -0.22400
H235        H  0.52213162  0.36155200  0.40726907     0.08700
C236        C  0.59724033  0.32782385  0.38544386     0.05000
C237        C  0.59211765  0.30589064  0.34944519    -0.19600
C238        C  0.58804168  0.32320242  0.31232916    -0.11900
C239        C  0.60276894  0.36982406  0.31198300     0.13800
C240        C  0.60814209  0.39178144  0.34836169    -0.22400
C241        C  0.59451143  0.30343790  0.42334095    -0.05400
H242        H  0.58552665  0.27245635  0.35194350     0.15300
C243        C  0.61276177  0.39797982  0.27465635    -0.15600
H244        H  0.61434333  0.42544884  0.34818075     0.09600
H245        H  0.46440338  0.36588412  0.46263024     0.07500
H246        H  0.48521702  0.40937509  0.42476481     0.08700
H247        H  0.48560794  0.42253915  0.47580463     0.07700
H248        H  0.68899918  0.44021755  0.41268227     0.02600
H249        H  0.67420759  0.39359668  0.44606136     0.03100
H250        H  0.69662185  0.44360121  0.97441890     0.06600
H251        H  0.56060752  0.27275377  0.42688171     0.05600
H252        H  0.59953865  0.32381880  0.44967358    -0.00200
H253        H  0.62168331  0.29438133  0.42213995     0.01300
H254        H  0.58118106  0.38934571  0.25926157     0.04900
H255        H  0.63824313  0.39537992  0.25498275     0.06900
H256        H  0.62823625  0.43369251  0.28128977     0.07700
C257        C  0.58693436  0.35079723  0.17858272    -0.21900
C258        C  0.55251842  0.36144711  0.17345867     0.10100
C259        C  0.51344220  0.34053574  0.19959304     0.10500
C260        C  0.51109182  0.31167119  0.23039227    -0.16800
C261        C  0.54966968  0.30854609  0.24162037    -0.27200
C262        C  0.58664600  0.32545205  0.21200387     0.18800
C263        C  0.55743426  0.39319266  0.14009649     0.12800
C264        C  0.47497357  0.35047212  0.19697586    -0.11600
H265        H  0.47842053  0.29240864  0.24608029     0.13100
C266        C  0.62637468  0.31758039  0.21449696    -0.22400
H267        H  0.61469913  0.36313141  0.15631227     0.08700
C268        C  0.59197303  0.43867403  0.13870615     0.05000
C269        C  0.59476249  0.46690627  0.10678438    -0.19600
C270        C  0.56289715  0.45147311  0.07668888    -0.11900
C271        C  0.52686067  0.40672379  0.07964882     0.13800
C272        C  0.52593956  0.37798411  0.10981326    -0.22400
C273        C  0.62509844  0.45793210  0.17151648    -0.05400
H274        H  0.62190051  0.50124780  0.10530473     0.15300
C275        C  0.48680755  0.38893776  0.05334097    -0.15600
H276        H  0.49925892  0.34349251  0.11033671     0.09600
H277        H  0.65226410  0.33457184  0.18978792     0.07500
H278        H  0.61424286  0.28180322  0.21161719     0.08700
H279        H  0.64392205  0.33030426  0.24260948     0.07700
H280        H  0.45792466  0.33952228  0.16844656     0.02600
H281        H  0.48874480  0.38667684  0.19944280     0.03100
H282        H  0.44846369  0.33344625  0.22134241     0.06600
H283        H  0.64878406  0.49408013  0.16661061     0.05600
H284        H  0.64608740  0.44175016  0.17314138    -0.00200
H285        H  0.60591795  0.45282111  0.20041002     0.01300
H286        H  0.45444801  0.37226083  0.07193293     0.04900
H287        H  0.48774002  0.36454055  0.03287279     0.06900
H288        H  0.48607301  0.41573224  0.03633184     0.07700
C289        C  0.82492974  0.95298617  0.30727556    -0.21900
C290        C  0.83291121  0.91969165  0.29314056     0.10100
C291        C  0.87661254  0.93110384  0.27713549     0.10500
C292        C  0.91190326  0.97547495  0.27696242    -0.16800
C293        C  0.90511059  0.00898852  0.29319900    -0.27200
C294        C  0.86030747  0.99747847  0.30773237     0.18800
C295        C  0.79566958  0.87274610  0.29731701     0.12800
C296        C  0.88646080  0.89613783  0.26169812    -0.11600
H297        H  0.94549392  0.98375519  0.26492931     0.13100
C298        C  0.84907128  0.03071235  0.32524343    -0.22400
H299        H  0.79094055  0.94374046  0.31907233     0.08700
C300        C  0.78479648  0.84926060  0.33384316     0.05000
C301        C  0.74988053  0.80467855  0.33643533    -0.19600
C302        C  0.72396512  0.78155566  0.30338329    -0.11900
C303        C  0.73643344  0.80683442  0.26616608     0.13800
C304        C  0.77184044  0.85128627  0.26405700    -0.22400
C305        C  0.81142441  0.87095640  0.37007065    -0.05400
H306        H  0.74577596  0.78831667  0.36458534     0.15300
C307        C  0.71245974  0.78966840  0.22776547    -0.15600
H308        H  0.78056527  0.86999568  0.23613378     0.09600
H309        H  0.87226866  0.04849973  0.34951659     0.07500
H310        H  0.81347811  0.01459642  0.33817668     0.08700
H311        H  0.85162176  0.05420734  0.30155622     0.07700
H312        H  0.86451470  0.87930240  0.23649524     0.02600
H313        H  0.87935748  0.87126072  0.28577638     0.03100
H314        H  0.92272451  0.91051862  0.25100462     0.06600
H315        H  0.79938890  0.84789923  0.39642076     0.05600
H316        H  0.80760653  0.89986636  0.37779444    -0.00200
H317        H  0.84819980  0.88229401  0.36384663     0.01300
H318        H  0.70588330  0.81477873  0.21372559     0.04900
H319        H  0.67863803  0.75983447  0.23157267     0.06900
H320        H  0.73420919  0.78262561  0.20715333     0.07700
C321        C  0.70900817  0.66819199  0.39139211    -0.21900
C322        C  0.70726219  0.69170709  0.42402322     0.10100
C323        C  0.68653867  0.71787111  0.42054150     0.10500
C324        C  0.67368036  0.72443951  0.38277590    -0.16800
C325        C  0.68408027  0.70783683  0.34796449    -0.27200
C326        C  0.69400308  0.67254890  0.35440890     0.18800
C327        C  0.73108408  0.69029986  0.45969873     0.12800
C328        C  0.67969166  0.74004639  0.45621875    -0.11600
H329        H  0.66090576  0.74723973  0.37977076     0.13100
C330        C  0.68778123  0.63654316  0.32603832    -0.22400
H331        H  0.72216416  0.64570514  0.39491649     0.08700
C332        C  0.71688460  0.65017760  0.48106193     0.05000
C333        C  0.75233005  0.65224950  0.01071263    -0.19600
C334        C  0.79703229  0.68718215  0.01544372    -0.11900
C335        C  0.80479463  0.72349157  0.49094241     0.13800
C336        C  0.77422859  0.72694506  0.46602577    -0.22400
C337        C  0.66978032  0.61080483  0.47697095    -0.05400
H338        H  0.74148024  0.62042618  0.02488632     0.15300
C339        C  0.85695836  0.76882043  0.00201220    -0.15600
H340        H  0.78534254  0.75769160  0.44937783     0.09600
H341        H  0.66690475  0.60371841  0.34151666     0.07500
H342        H  0.72146259  0.64019790  0.31709964     0.08700
H343        H  0.66906871  0.63416900  0.29945955     0.07700
H344        H  0.71321779  0.76347373  0.46843013     0.02600
H345        H  0.65816058  0.71458611  0.47947416     0.03100
H346        H  0.66241004  0.75891253  0.44854372     0.06600
H347        H  0.66415466  0.58227010  0.49609344     0.05600
H348        H  0.66460144  0.59961633  0.44585924    -0.00200
H349        H  0.64384909  0.62012684  0.48594514     0.01300
H350        H  0.86991713  0.77450923  0.46626678     0.04900
H351        H  0.87666352  0.76300174  0.02457243     0.06900
H352        H  0.85221346  0.79650777  0.01231166     0.07700
C353        C  0.76322490  0.70451707  0.23637226    -0.21900
C354        C  0.73497063  0.68348859  0.20509518     0.10100
C355        C  0.68844410  0.67148545  0.20909995     0.10500
C356        C  0.67278785  0.68555439  0.24217036    -0.16800
C357        C  0.70187085  0.70986635  0.27292542    -0.27200
C358        C  0.74788641  0.71725330  0.27016967     0.18800
C359        C  0.75694723  0.67781310  0.16813349     0.12800
C360        C  0.65443801  0.64479331  0.17880009    -0.11600
H361        H  0.63781855  0.67861575  0.24276141     0.13100
C362        C  0.78328650  0.73858647  0.30132474    -0.22400
H363        H  0.79849267  0.71193678  0.23396625     0.08700
C364        C  0.79037882  0.71534892  0.14566465     0.05000
C365        C  0.81520442  0.70975548  0.11425150    -0.19600
C366        C  0.80627234  0.66757386  0.10349788    -0.11900
C367        C  0.76997585  0.62986676  0.12317193     0.13800
C368        C  0.74698603  0.63530499  0.15655150    -0.22400
C369        C  0.79904649  0.76130548  0.15389291    -0.05400
H370        H  0.84158521  0.73841338  0.09752178     0.15300
C371        C  0.75434946  0.58434808  0.10768950    -0.15600
H372        H  0.72077695  0.60647218  0.17319941     0.09600
H373        H  0.81179909  0.77084231  0.28945800     0.07500
H374        H  0.79727948  0.71667702  0.30858964     0.08700
H375        H  0.77040400  0.74407890  0.32981498     0.07700
H376        H  0.62732696  0.61308406  0.19285602     0.02600
H377        H  0.66983486  0.63704971  0.15275412     0.03100
H378        H  0.63848593  0.66364707  0.16811507     0.06600
H379        H  0.82480955  0.78626177  0.13222283     0.05600
H380        H  0.81211998  0.77144615  0.18403068    -0.00200
H381        H  0.76670344  0.76191038  0.15141512     0.01300
H382        H  0.78283558  0.57724716  0.10720165     0.04900
H383        H  0.74294107  0.58217521  0.07699570     0.06900
H384        H  0.72489112  0.55840440  0.12593645     0.07700
C385        C  0.16538363  0.80014067  0.32083276    -0.21900
C386        C  0.16906014  0.76169635  0.32364184     0.10100
C387        C  0.21306945  0.76657370  0.31574241     0.10500
C388        C  0.25143245  0.80915171  0.30789643    -0.16800
C389        C  0.24858508  0.84812039  0.30938698    -0.27200
C390        C  0.20429585  0.84300643  0.31493226     0.18800
C391        C  0.12717980  0.71664227  0.33363997     0.12800
C392        C  0.22114154  0.72768461  0.31915073    -0.11600
H393        H  0.28507275  0.81248357  0.30469285     0.13100
C394        C  0.19670904  0.88195519  0.31748785    -0.22400
H395        H  0.13193188  0.79702719  0.32436538     0.08700
C396        C  0.09763117  0.70617498  0.36817297     0.05000
C397        C  0.06023665  0.66220190  0.37503723    -0.19600
C398        C  0.05429638  0.62639481  0.35116010    -0.11900
C399        C  0.08797678  0.63759985  0.31904204     0.13800
C400        C  0.11888116  0.68207534  0.30860858    -0.22400
C401        C  0.10557864  0.74072284  0.39835880    -0.05400
H402        H  0.03603134  0.65623434  0.39944906     0.15300
C403        C  0.09388610  0.60428692  0.29482808    -0.15600
H404        H  0.13864466  0.68982588  0.28077118     0.09600
H405        H  0.18175296  0.88194661  0.34743491     0.07500
H406        H  0.17252909  0.87923177  0.29469846     0.08700
H407        H  0.22838762  0.91417112  0.31232228     0.07700
H408        H  0.20689982  0.70490855  0.29428539     0.02600
H409        H  0.20509259  0.70864388  0.34735455     0.03100
H410        H  0.25812758  0.73866690  0.31849861     0.06600
H411        H  0.08169217  0.72618465  0.42483497     0.05600
H412        H  0.10011968  0.76687596  0.38532986    -0.00200
H413        H  0.14102660  0.75573797  0.40864445     0.01300
H414        H  0.06502618  0.58533382  0.27636978     0.04900
H415        H  0.09975837  0.58142765  0.31296121     0.06900
H416        H  0.12424574  0.62093569  0.27405904     0.07700
C417        C  0.55200864  0.23830668  0.10871356    -0.21900
C418        C  0.58220179  0.25316276  0.07524586     0.10100
C419        C  0.56966601  0.22671947  0.04162544     0.10500
C420        C  0.52573681  0.18894398  0.04059559    -0.16800
C421        C  0.49103919  0.17704861  0.07154700    -0.27200
C422        C  0.50754240  0.20066960  0.10782992     0.18800
C423        C  0.62615396  0.29690013  0.07542483     0.12800
C424        C  0.60293746  0.23873213  0.00643536    -0.11600
H425        H  0.51913265  0.16985211  0.01409128     0.13100
C426        C  0.47947110  0.18996095  0.14623263    -0.22400
H427        H  0.56258817  0.25735140  0.13554473     0.08700
C428        C  0.62937836  0.33635254  0.06022238     0.05000
C429        C  0.67105497  0.37707000  0.06155142    -0.19600
C430        C  0.70887774  0.38044115  0.08102585    -0.11900
C431        C  0.70481298  0.34047437  0.09689353     0.13800
C432        C  0.66460501  0.29940417  0.09230752    -0.22400
C433        C  0.58744560  0.33598193  0.04600613    -0.05400
H434        H  0.67204396  0.40732056  0.05202199     0.15300
C435        C  0.74010546  0.34028489  0.12295930    -0.15600
H436        H  0.66205048  0.26943527  0.10475504     0.09600
H437        H  0.47852054  0.21992639  0.15546748     0.07500
H438        H  0.49604505  0.18042346  0.16909309     0.08700
H439        H  0.44358171  0.16327673  0.14465462     0.07700
H440        H  0.63350501  0.23743816  0.01552643     0.02600
H441        H  0.61396714  0.27282644  0.99559410     0.03100
H442        H  0.58773086  0.21592814  0.98145050     0.06600
H443        H  0.59500128  0.36944199  0.03605573     0.05600
H444        H  0.56102973  0.32440703  0.07073276    -0.00200
H445        H  0.57324895  0.31318043  0.02098702     0.01300
H446        H  0.72398913  0.32545412  0.15266821     0.04900
H447        H  0.76908897  0.37389643  0.12774399     0.06900
H448        H  0.75376210  0.32014665  0.10923856     0.07700
C449        C  0.32818219  0.14662028  0.08588340    -0.21900
C450        C  0.34436210  0.18044233  0.11305608     0.10100
C451        C  0.39146687  0.21040257  0.11364425     0.10500
C452        C  0.42135305  0.20269933  0.08947240    -0.16800
C453        C  0.40594180  0.16207492  0.06987634    -0.27200
C454        C  0.35819120  0.13945973  0.06159073     0.18800
C455        C  0.31024510  0.18618050  0.13653728     0.12800
C456        C  0.41027195  0.24906181  0.14099216    -0.11600
H457        H  0.45690435  0.22788091  0.08808991     0.13100
C458        C  0.33954879  0.12314456  0.02101047    -0.22400
H459        H  0.29170758  0.12806301  0.08130570     0.08700
C460        C  0.29246387  0.21205571  0.12156146     0.05000
C461        C  0.25521466  0.21123889  0.14197657    -0.19600
C462        C  0.23388865  0.18331996  0.17565064    -0.11900
C463        C  0.25190299  0.15744157  0.19061943     0.13800
C464        C  0.29024121  0.15958276  0.17098164    -0.22400
C465        C  0.31064800  0.23801291  0.08265114    -0.05400
H466        H  0.24069848  0.23020698  0.12998091     0.15300
C467        C  0.23139623  0.12684801  0.22670888    -0.15600
H468        H  0.30355660  0.13902273  0.18169423     0.09600
H469        H  0.34074781  0.15087755  0.00355379     0.07500
H470        H  0.30320647  0.09622446  0.02385031     0.08700
H471        H  0.35717308  0.10993013  0.00306883     0.07700
H472        H  0.40020657  0.23674893  0.17234769     0.02600
H473        H  0.39679900  0.27136376  0.13398399     0.03100
H474        H  0.44818329  0.26871498  0.13828155     0.06600
H475        H  0.29207478  0.25562207  0.07493391     0.05600
H476        H  0.30658868  0.21520796  0.05823954    -0.00200
H477        H  0.34737138  0.26309359  0.08434688     0.01300
H478        H  0.21820498  0.09207248  0.21774126     0.04900
H479        H  0.20314940  0.12927478  0.24190985     0.06900
H480        H  0.25808846  0.13515508  0.24865732     0.07700
C481        C  0.42765449  0.13900737  0.44405625    -0.21900
C482        C  0.41958809  0.09608858  0.43828442     0.10100
C483        C  0.42703029  0.07366580  0.46970572     0.10500
C484        C  0.43559195  0.08766690  0.01065456    -0.16800
C485        C  0.43658327  0.12760201  0.01974032    -0.27200
C486        C  0.44003532  0.15552498  0.98649786     0.18800
C487        C  0.39661375  0.07222260  0.40217219     0.12800
C488        C  0.42266889  0.02870601  0.46520205    -0.11600
H489        H  0.43910377  0.06809649  0.03391852     0.13100
C490        C  0.45284826  0.20356374  0.98933106    -0.22400
H491        H  0.42275460  0.15654210  0.41978285     0.08700
C492        C  0.34841375  0.04630339  0.40304714     0.05000
C493        C  0.32752500  0.01198259  0.37617963    -0.19600
C494        C  0.35386198  0.00328365  0.34855945    -0.11900
C495        C  0.40077788  0.03444979  0.34267624     0.13800
C496        C  0.42223354  0.06841364  0.37017889    -0.22400
C497        C  0.31931077  0.05240585  0.43446328    -0.05400
H498        H  0.29117831  0.98846572  0.38007548     0.15300
C499        C  0.42775443  0.03080086  0.30795692    -0.15600
H500        H  0.45910347  0.08975692  0.36837456     0.09600
H501        H  0.42275144  0.20724598  0.98365826     0.07500
H502        H  0.48031033  0.22361480  0.96647184     0.08700
H503        H  0.46661949  0.21810706  0.01809536     0.07700
H504        H  0.45535877  0.03063775  0.47261109     0.02600
H505        H  0.41475755  0.01604707  0.43469746     0.03100
H506        H  0.39494879  0.00439492  0.48595305     0.06600
H507        H  0.28225072  0.02949140  0.43076044     0.05600
H508        H  0.32570577  0.08686585  0.43238364    -0.00200
H509        H  0.32865045  0.03857668  0.96547360     0.01300
H510        H  0.41346623  0.03458101  0.28002881     0.04900
H511        H  0.42561090  0.99800209  0.30845329     0.06900
H512        H  0.46418476  0.05718613  0.30800785     0.07700
C513        C  0.35324670  0.03883850  0.13468193    -0.21900
C514        C  0.38131438  0.04102099  0.16493890     0.10100
C515        C  0.42910757  0.06810527  0.15731277     0.10500
C516        C  0.44669894  0.09523569  0.12220686    -0.16800
C517        C  0.41817410  0.09891222  0.09435454    -0.27200
C518        C  0.37095484  0.06374884  0.09862396     0.18800
C519        C  0.35947022  0.01097707  0.20158176     0.12800
C520        C  0.46302105  0.07127037  0.18627326    -0.11600
H521        H  0.48342822  0.11549490  0.11820193     0.13100
C522        C  0.33876747  0.04433093  0.06535980    -0.22400
H523        H  0.31705996  0.01446392  0.13792527     0.08700
C524        C  0.33006801  0.01657307  0.22915369     0.05000
C525        C  0.31014896  0.98742007  0.26278394    -0.19600
C526        C  0.31849647  0.95232593  0.27012150    -0.11900
C527        C  0.34714093  0.94631048  0.24205868     0.13800
C528        C  0.36674878  0.97513547  0.20825183    -0.22400
C529        C  0.32143774  0.05473624  0.22430998    -0.05400
H530        H  0.28989077  0.99348211  0.28478354     0.15300
C531        C  0.35945394  0.91107607  0.24917263    -0.15600
H532        H  0.38882978  0.97027082  0.18725705     0.09600
H533        H  0.32647166  0.00824028  0.06418712     0.07500
H534        H  0.35484699  0.05734610  0.03604899     0.08700
H535        H  0.30836333  0.04811767  0.07088250     0.07700
H536        H  0.48471317  0.05897746  0.17237896     0.02600
H537        H  0.44687950  0.05241485  0.21441048     0.03100
H538        H  0.48491406  0.10656492  0.19351566     0.06600
H539        H  0.29948902  0.05557689  0.24927905     0.05600
H540        H  0.30383614  0.05179497  0.19633013    -0.00200
H541        H  0.35444714  0.08653709  0.22345552     0.01300
H542        H  0.38493166  0.91271539  0.22640183     0.04900
H543        H  0.32837385  0.87784980  0.24839969     0.06900
H544        H  0.37424023  0.91543951  0.27876453     0.07700
C545        C  0.95920279  0.67353870  0.13860637    -0.21900
C546        C  0.95321901  0.63053409  0.13858266     0.10100
C547        C  0.90475515  0.59059780  0.14036011     0.10500
C548        C  0.88169424  0.60439896  0.11092150    -0.16800
C549        C  0.88884749  0.64769317  0.10614019    -0.27200
C550        C  0.92570540  0.68186781  0.12486494     0.18800
C551        C  0.99907001  0.63119716  0.13381849     0.12800
C552        C  0.86338920  0.51108299  0.19260277    -0.11600
H553        H  0.85613258  0.58135031  0.09156788     0.13100
C554        C  0.93323666  0.72823847  0.12472488    -0.22400
H555        H  0.99231123  0.70145049  0.14508735     0.08700
C556        C  0.01852809  0.62947937  0.09658949     0.05000
C557        C  0.05989451  0.62772012  0.09413796    -0.19600
C558        C  0.08369386  0.62686815  0.12845406    -0.11900
C559        C  0.06461669  0.63281527  0.16535226     0.13800
C560        C  0.02715724  0.64042490  0.16593878    -0.22400
C561        C  0.99656861  0.63203247  0.05935361    -0.05400
H562        H  0.07134862  0.62401574  0.06479097     0.15300
C563        C  0.07657023  0.62461617  0.20568256    -0.15600
H564        H  0.01714930  0.64987301  0.19308819     0.09600
H565        H  0.93593030  0.74078594  0.09374652     0.07500
H566        H  0.96505336  0.75141615  0.13960546     0.08700
H567        H  0.90408168  0.72817474  0.14105118     0.07700
H568        H  0.86681287  0.51309202  0.22594676     0.02600
H569        H  0.82551331  0.48772262  0.19602175     0.03100
H570        H  0.87211550  0.48392422  0.18880074     0.06600
H571        H  0.99690690  0.66402014  0.05797963     0.05600
H572        H  0.96042455  0.60489008  0.05988354    -0.00200
H573        H  0.01511405  0.63035785  0.03216204     0.01300
H574        H  0.11205059  0.64742018  0.21272822     0.04900
H575        H  0.06709982  0.58951193  0.20824417     0.06900
H576        H  0.05640479  0.62953272  0.22977099     0.07700
C577        C  0.00047318  0.39097023  0.17929899    -0.21900
C578        C  0.03365455  0.41863172  0.15028769     0.10100
C579        C  0.06242605  0.40489024  0.13172517     0.10500
C580        C  0.05795620  0.36420846  0.14318135    -0.16800
C581        C  0.02640467  0.33743117  0.17361116    -0.27200
C582        C  0.99674686  0.35066495  0.19162989     0.18800
C583        C  0.04666266  0.46584625  0.14808640     0.12800
C584        C  0.09988567  0.43440765  0.10165656    -0.11600
H585        H  0.08051660  0.35397650  0.12929325     0.13100
C586        C  0.96337406  0.32530294  0.22584919    -0.22400
H587        H  0.97972891  0.40252229  0.19456484     0.08700
C588        C  0.03289041  0.48472017  0.11857254     0.05000
C589        C  0.05444541  0.53129099  0.11481445    -0.19600
C590        C  0.09155984  0.55978879  0.13827793    -0.11900
C591        C  0.09797155  0.53899662  0.17292823     0.13800
C592        C  0.07706669  0.49287453  0.17568739    -0.22400
C593        C  0.99735380  0.45599060  0.08996476    -0.05400
H594        H  0.04581554  0.54523729  0.09006669     0.15300
C595        C  0.12454612  0.56059825  0.20915900    -0.15600
H596        H  0.08507965  0.47739237  0.19988509     0.09600
H597        H  0.92810511  0.31502614  0.21718731     0.07500
H598        H  0.97150778  0.34698125  0.25192154     0.08700
H599        H  0.96427540  0.29539210  0.23553736     0.07700
H600        H  0.12435972  0.46587769  0.11552818     0.02600
H601        H  0.08490217  0.44175533  0.07591021     0.03100
H602        H  0.11942376  0.41860879  0.09031878     0.06600
H603        H  0.99092710  0.47610219  0.06813972     0.05600
H604        H  0.96468407  0.43359701  0.10671522    -0.00200
H605        H  0.00887325  0.43574645  0.07322796     0.01300
H606        H  0.10217628  0.54507173  0.23636883     0.04900
H607        H  0.13700361  0.59603108  0.21155309     0.06900
H608        H  0.15359256  0.55439362  0.21037069     0.07700
C609        C  0.55154405  0.68626867  0.31010657    -0.21900
C610        C  0.54993328  0.72445827  0.29939924     0.10100
C611        C  0.59184576  0.76303396  0.28865695     0.10500
C612        C  0.63299295  0.76374873  0.29388649    -0.16800
C613        C  0.63630242  0.72539631  0.30228384    -0.27200
C614        C  0.59303627  0.68527189  0.31007463     0.18800
C615        C  0.50640876  0.72599109  0.30686263     0.12800
C616        C  0.59564428  0.80527872  0.27202687    -0.11600
H617        H  0.66249482  0.79622836  0.29080012     0.13100
C618        C  0.58831116  0.64094598  0.32053862    -0.22400
H619        H  0.51987372  0.65697503  0.31994397     0.08700
C620        C  0.46197225  0.69242821  0.29623833     0.05000
C621        C  0.42289561  0.69469372  0.30961501    -0.19600
C622        C  0.42742609  0.73173293  0.32982354    -0.11900
C623        C  0.47207593  0.76759847  0.33491937     0.13800
C624        C  0.50983966  0.76239587  0.32725355    -0.22400
C625        C  0.45438793  0.65446751  0.27040980    -0.05400
H626        H  0.38899334  0.66703010  0.30512308     0.15300
C627        C  0.48118981  0.81170011  0.34997568    -0.15600
H628        H  0.54273221  0.78799649  0.33688935     0.09600
H629        H  0.55190186  0.61435978  0.32413923     0.07500
H630        H  0.60328587  0.64158130  0.34935250     0.08700
H631        H  0.60318920  0.63034524  0.29635017     0.07700
H632        H  0.61293530  0.83237974  0.29330560     0.02600
H633        H  0.56241904  0.80206522  0.26548025     0.03100
H634        H  0.61651174  0.81523972  0.24364938     0.06600
H635        H  0.43387950  0.65328152  0.24488614     0.05600
H636        H  0.43538424  0.62278639  0.28791498    -0.00200
H637        H  0.48672577  0.65790942  0.25768088     0.01300
H638        H  0.49609078  0.81662787  0.37958904     0.04900
H639        H  0.44993575  0.81453090  0.35223592     0.06900
H640        H  0.50601596  0.83852962  0.32914841     0.07700
C641        C  0.14821067  0.60337725  0.00892596    -0.21900
C642        C  0.18187877  0.64730231  0.99983915     0.10100
C643        C  0.19136083  0.67847159  0.03019695     0.10500
C644        C  0.16743172  0.66416069  0.06746600    -0.16800
C645        C  0.14011951  0.61877953  0.07933954    -0.27200
C646        C  0.13375882  0.58773732  0.04853044     0.18800
C647        C  0.20851161  0.65707656  0.46277196     0.12800
C648        C  0.22793879  0.72661869  0.02516526    -0.11600
H649        H  0.17255275  0.68919727  0.08873115     0.13100
C650        C  0.11992007  0.53951319  0.05383603    -0.22400
H651        H  0.13701597  0.57834098  0.48674310     0.08700
C652        C  0.23000286  0.63279814  0.44988589     0.05000
C653        C  0.26050181  0.64806793  0.41629486    -0.19600
C654        C  0.27597662  0.69018119  0.39892085    -0.11900
C655        C  0.25506261  0.71454944  0.41207377     0.13800
C656        C  0.21857346  0.69559217  0.44073253    -0.22400
C657        C  0.22385558  0.59156559  0.97249713    -0.05400
H658        H  0.27828366  0.63047310  0.40786788     0.15300
C659        C  0.27478658  0.76288953  0.40090945    -0.15600
H660        H  0.20112740  0.71352561  0.44863750     0.09600
H661        H  0.12139747  0.52941964  0.08432513     0.07500
H662        H  0.14458267  0.53283373  0.03690082     0.08700
H663        H  0.08564678  0.51811032  0.04189396     0.07700
H664        H  0.21688134  0.74440241  0.00505734     0.02600
H665        H  0.26055649  0.72951468  0.01366642     0.03100
H666        H  0.23491092  0.74386564  0.05390783     0.06600
H667        H  0.25173285  0.58495367  0.46330353     0.05600
H668        H  0.18967204  0.56230901  0.96866547    -0.00200
H669        H  0.22935126  0.59970140  0.00442187     0.01300
H670        H  0.24734406  0.76917667  0.39164286     0.04900
H671        H  0.30141701  0.77419600  0.37640786     0.06900
H672        H  0.29040758  0.78313413  0.42727205     0.07700
C673        C  0.23190577  0.63736976  0.18096815    -0.21900
C674        C  0.23620135  0.67057943  0.20658090     0.10100
C675        C  0.21236586  0.69312229  0.19649974     0.10500
C676        C  0.17840336  0.67558070  0.16758728    -0.16800
C677        C  0.16614050  0.63538411  0.14852696    -0.27200
C678        C  0.19929191  0.62094694  0.15106437     0.18800
C679        C  0.26569940  0.68026637  0.24259979     0.12800
C680        C  0.22146274  0.73582912  0.21490325    -0.11600
H681        H  0.15989289  0.69268832  0.16142031     0.13100
C682        C  0.20060612  0.58706118  0.12431038    -0.22400
H683        H  0.25366423  0.62319357  0.18515968     0.08700
C684        C  0.25449215  0.64839842  0.27410454     0.05000
C685        C  0.28182414  0.65912664  0.30766301    -0.19600
C686        C  0.32088969  0.70080783  0.31125170    -0.11900
C687        C  0.33311801  0.73212921  0.27938436     0.13800
C688        C  0.30619144  0.72125261  0.24539778    -0.22400
C689        C  0.21315848  0.60292039  0.27327203    -0.05400
H690        H  0.27228546  0.63488387  0.33169248     0.15300
C691        C  0.37284208  0.77818479  0.28196680    -0.15600
H692        H  0.31621007  0.74545733  0.22118190     0.09600
H693        H  0.23059034  0.58301181  0.12957818     0.07500
H694        H  0.20417349  0.59776906  0.09271564     0.08700
H695        H  0.17037139  0.55411699  0.13025378     0.07700
H696        H  0.23331315  0.76205952  0.19120234     0.02600
H697        H  0.24791076  0.74769587  0.23721602     0.03100
H698        H  0.18950031  0.73171015  0.22927957     0.06600
H699        H  0.20807847  0.58324990  0.30104677     0.05600
H700        H  0.21728958  0.58453021  0.24826996    -0.00200
H701        H  0.18234503  0.60578116  0.27011981     0.01300
H702        H  0.40525350  0.77767069  0.28251006     0.04900
H703        H  0.36847423  0.79379548  0.30917999     0.06900
H704        H  0.37528280  0.79867975  0.25561922     0.07700
C705        C  0.54425631  0.08940640  0.25462647    -0.21900
C706        C  0.56030707  0.12280216  0.28322608     0.10100
C707        C  0.57144880  0.11245089  0.32062482     0.10500
C708        C  0.56681275  0.07054202  0.32771872    -0.16800
C709        C  0.54338638  0.03515283  0.30196093    -0.27200
C710        C  0.53380938  0.04543327  0.26400366     0.18800
C711        C  0.56201741  0.16649751  0.27473259     0.12800
C712        C  0.58376945  0.14248847  0.35569175    -0.11600
H713        H  0.57432326  0.06321934  0.35699970     0.13100
C714        C  0.51113530  0.01045295  0.23355698    -0.22400
H715        H  0.53841889  0.09737701  0.22524595     0.08700
C716        C  0.60111701  0.20821485  0.28078631     0.05000
C717        C  0.59699359  0.24647071  0.28328944    -0.19600
C718        C  0.55575064  0.24620911  0.27586439    -0.11900
C719        C  0.51972901  0.20569237  0.26090539     0.13800
C720        C  0.52250586  0.16643008  0.26287120    -0.22400
C721        C  0.64780829  0.21352368  0.28507701    -0.05400
H722        H  0.62702303  0.27696985  0.29092257     0.15300
C723        C  0.47731705  0.20223114  0.24393193    -0.15600
H724        H  0.49270162  0.13503038  0.25666130     0.09600
H725        H  0.53174391  0.02135329  0.20501449     0.07500
H726        H  0.47631616  0.00468057  0.22874307     0.08700
H727        H  0.50798497  0.97856499  0.24290317     0.07700
H728        H  0.58052629  0.17210477  0.35055707     0.02600
H729        H  0.61931735  0.15313687  0.36373331     0.03100
H730        H  0.56018816  0.12410178  0.38156776     0.06600
H731        H  0.67190296  0.23752704  0.26191663     0.05600
H732        H  0.64792654  0.18202530  0.28124277    -0.00200
H733        H  0.66045615  0.22644092  0.31484859     0.01300
H734        H  0.45502750  0.16903821  0.23166432     0.04900
H735        H  0.48745849  0.22712514  0.21966025     0.06900
H736        H  0.45565905  0.20734391  0.26587985     0.07700
C737        C  0.57491011  0.69216959  0.13448918    -0.21900
C738        C  0.56356768  0.66776347  0.09978644     0.10100
C739        C  0.55336723  0.68515463  0.06639852     0.10500
C740        C  0.55698698  0.72721898  0.06779453    -0.16800
C741        C  0.57297585  0.75515506  0.10135790    -0.27200
C742        C  0.58081026  0.73528624  0.13581436     0.18800
C743        C  0.56672593  0.62629727  0.09737357     0.12800
C744        C  0.54176609  0.66055463  0.02793465    -0.11600
H745        H  0.55256513  0.73939629  0.03986610     0.13100
C746        C  0.59853476  0.75830840  0.17435072    -0.22400
H747        H  0.58133271  0.67822302  0.16065475     0.08700
C748        C  0.60867100  0.62815224  0.08711312     0.05000
C749        C  0.60934842  0.58866019  0.07998256    -0.19600
C750        C  0.56860774  0.54762630  0.07805287    -0.11900
C751        C  0.52721465  0.54539427  0.09117821     0.13800
C752        C  0.52677854  0.58450683  0.10116398    -0.22400
C753        C  0.65200751  0.67191373  0.07896665    -0.05400
H754        H  0.64106677  0.59090505  0.06919707     0.15300
C755        C  0.48238595  0.50252023  0.09128127    -0.15600
H756        H  0.49450524  0.58267360  0.10910509     0.09600
H757        H  0.63239421  0.76160806  0.17903114     0.07500
H758        H  0.57455299  0.73822407  0.19945032     0.08700
H759        H  0.60265246  0.79148025  0.17566979     0.07700
H760        H  0.51067132  0.62750337  0.03278980     0.02600
H761        H  0.57068128  0.65618870  0.01717705     0.03100
H762        H  0.53503935  0.67856024  0.00416442     0.06600
H763        H  0.68193976  0.66751395  0.07247755     0.05600
H764        H  0.65970645  0.69370514  0.10480017    -0.00200
H765        H  0.64786210  0.68868254  0.05263605     0.01300
H766        H  0.46502316  0.49588281  0.12125593     0.04900
H767        H  0.48711278  0.47402266  0.08411861     0.06900
H768        H  0.46012828  0.50487774  0.06905369     0.07700
C769        C  0.72192876  0.84973664  0.08871110    -0.21900
C770        C  0.73840459  0.88447164  0.11503672     0.10100
C771        C  0.70746657  0.88940785  0.14036902     0.10500
C772        C  0.66045900  0.86269668  0.13566193    -0.16800
C773        C  0.64230653  0.83091939  0.10541947    -0.27200
C774        C  0.67459785  0.82187666  0.08431100     0.18800
C775        C  0.78791991  0.91705393  0.11535257     0.12800
C776        C  0.72432142  0.92340129  0.17244518    -0.11600
H777        H  0.63852301  0.86773097  0.15620609     0.13100
C778        C  0.66132181  0.78506635  0.05523554    -0.22400
H779        H  0.74646139  0.84512291  0.07077615     0.08700
C780        C  0.81766076  0.90978214  0.13838080     0.05000
C781        C  0.85919559  0.94622761  0.14914796    -0.19600
C782        C  0.87231319  0.98920837  0.13516715    -0.11900
C783        C  0.84601842  0.99482207  0.10623475     0.13800
C784        C  0.80336543  0.95889153  0.09772024    -0.22400
C785        C  0.80491041  0.86379295  0.15186733    -0.05400
H786        H  0.88027398  0.94139528  0.16985473     0.15300
C787        C  0.86189469  0.03786388  0.08352185    -0.15600
H788        H  0.78122645  0.96388794  0.07839398     0.09600
H789        H  0.64547095  0.75300376  0.07176740     0.07500
H790        H  0.69148149  0.78771836  0.03836181     0.08700
H791        H  0.63820500  0.78546199  0.03294515     0.07700
H792        H  0.74489129  0.95724263  0.15890977     0.02600
H793        H  0.74577120  0.91702914  0.19270463     0.03100
H794        H  0.69578364  0.92236582  0.19060082     0.06600
H795        H  0.83109661  0.86356580  0.17069873     0.05600
H796        H  0.80134897  0.84372675  0.12535698    -0.00200
H797        H  0.77182714  0.84847446  0.16893226     0.01300
H798        H  0.86001889  0.03171806  0.05109617     0.04900
H799        H  0.89790162  0.06290801  0.08868887     0.06900
H800        H  0.83943113  0.05157738  0.09177371     0.07700
C801        C  0.59478552  0.86713418  0.99451240    -0.21900
C802        C  0.54892310  0.84340872  0.98421116     0.10100
C803        C  0.51905745  0.80542739  0.00796433     0.10500
C804        C  0.53361089  0.79791117  0.04436930    -0.16800
C805        C  0.58025306  0.81977838  0.05444300    -0.27200
C806        C  0.61208178  0.85445041  0.02649931     0.18800
C807        C  0.54443354  0.86602659  0.44939693     0.12800
C808        C  0.47236039  0.77088241  0.99541977    -0.11600
H809        H  0.50825375  0.77184917  0.06423053     0.13100
C810        C  0.66390111  0.88120629  0.02800669    -0.22400
H811        H  0.61800601  0.89653048  0.97688111     0.08700
C812        C  0.50402074  0.86900234  0.45296316     0.05000
C813        C  0.49173574  0.88640782  0.42095836    -0.19600
C814        C  0.52330628  0.91169971  0.38958596    -0.11900
C815        C  0.56636245  0.91374749  0.38876289     0.13800
C816        C  0.57368881  0.88672366  0.41542655    -0.22400
C817        C  0.46335791  0.85479834  0.98576760    -0.05400
H818        H  0.45876517  0.88456557  0.42326894     0.15300
C819        C  0.60785327  0.94833190  0.36535366    -0.15600
H820        H  0.60529306  0.88601760  0.41182223     0.09600
H821        H  0.67945536  0.90973261  0.00638760     0.07500
H822        H  0.67905547  0.86090990  0.01861957     0.08700
H823        H  0.67626577  0.89647790  0.05681872     0.07700
H824        H  0.48213054  0.74182170  0.49056700     0.02600
H825        H  0.46515881  0.77757461  0.96509111     0.03100
H826        H  0.44558175  0.76872627  0.01694710     0.06600
H827        H  0.45920960  0.88410200  0.99067780     0.05600
H828        H  0.47739527  0.85008612  0.01337434    -0.00200
H829        H  0.42909266  0.82563892  0.98132809     0.01300
H830        H  0.63673594  0.96526959  0.38546077     0.04900
H831        H  0.61800357  0.93241170  0.34178821     0.06900
H832        H  0.60283067  0.97487933  0.35287740     0.07700
C833        C  0.55586348  0.88122973  0.16219112    -0.21900
C834        C  0.53356800  0.85376568  0.19538060     0.10100
C835        C  0.51686416  0.80777557  0.19134971     0.10500
C836        C  0.53031418  0.79252458  0.15717868    -0.16800
C837        C  0.56257882  0.82212951  0.12762466    -0.27200
C838        C  0.57004943  0.86676435  0.12857426     0.18800
C839        C  0.53143262  0.87640721  0.23292130     0.12800
C840        C  0.48571047  0.77390396  0.22244025    -0.11600
H841        H  0.51755535  0.75734129  0.15553186     0.13100
C842        C  0.59424303  0.90149077  0.09597443    -0.22400
H843        H  0.56469757  0.91567927  0.16376260     0.08700
C844        C  0.57230664  0.91048142  0.24888340     0.05000
C845        C  0.57043784  0.93866391  0.27777591    -0.19600
C846        C  0.52880068  0.93149412  0.29475363    -0.11900
C847        C  0.48783986  0.89760348  0.27904030     0.13800
C848        C  0.48957106  0.87105679  0.24804910    -0.22400
C849        C  0.61898064  0.91836230  0.23591546    -0.05400
H850        H  0.60201944  0.96638012  0.28702836     0.15300
C851        C  0.44248436  0.89160392  0.29348388    -0.15600
H852        H  0.45827312  0.84692224  0.23481505     0.09600
H853        H  0.59718949  0.93379889  0.10338046     0.07500
H854        H  0.57441588  0.89123227  0.06877485     0.08700
H855        H  0.62951874  0.90846124  0.09117200     0.07700
H856        H  0.45167343  0.75246022  0.21011556     0.02600
H857        H  0.48109269  0.78909542  0.24969815     0.03100
H858        H  0.50009599  0.75266332  0.23060749     0.06600
H859        H  0.63885724  0.95115617  0.22025693     0.05600
H860        H  0.61739731  0.89242404  0.21617206    -0.00200
H861        H  0.63743260  0.91797779  0.26243470     0.01300
H862        H  0.41444121  0.86837146  0.27509920     0.04900
H863        H  0.44330774  0.92364778  0.29109565     0.06900
H864        H  0.43481406  0.87926441  0.32489948     0.07700
C865        C  0.60089702  0.81099429  0.59487695    -0.01900
N866        N  0.52925457  0.95868053  0.82515930    -0.02900
C867        C  0.51760396  0.99117576  0.82158152    -0.00300
C868        C  0.48877793  0.98785151  0.85332266    -0.23200
C869        C  0.48536168  0.95602407  0.87873315    -0.23400
C870        C  0.51056512  0.93851280  0.86181124    -0.00400
H871        H  0.47787453  0.01136308  0.86084429     0.13400
H872        H  0.46926064  0.94941671  0.90831200     0.13400
N873        N  0.34501596  0.70869569  0.84527016    -0.02900
C874        C  0.39002913  0.72115795  0.85085857    -0.00300
C875        C  0.39887358  0.72668257  0.89092314    -0.23200
C876        C  0.35981549  0.71876905  0.91086102    -0.23400
C877        C  0.32716304  0.70729095  0.88295654    -0.00400
H878        H  0.43069884  0.73496731  0.90437593     0.13400
H879        H  0.35477001  0.71856977  0.94285368     0.13400
C880        C  0.11583035  0.61033300  0.62476558    -0.01900
C881        C  0.43893059  0.14727049  0.55934390    -0.01900
N882        N  0.31765260  0.93897758  0.80638365    -0.02900
C883        C  0.29942294  0.89505003  0.81797220    -0.00300
C884        C  0.32043998  0.89217899  0.85163699    -0.19400
C885        C  0.35057629  0.93425013  0.86218139    -0.23400
C886        C  0.34755720  0.96217230  0.83488367    -0.00400
H887        H  0.31138002  0.86252751  0.86918710     0.13400
H888        H  0.36898955  0.94360634  0.88939156     0.13400
N889        N  0.05521518  0.25925256  0.70503192    -0.26700
N890        N  0.01029585  0.23294708  0.70669255    -0.34600
C891        C  0.99016131  0.25751973  0.70161450     0.01600
C892        C  0.02398601  0.30154077  0.69677553     0.07700
C893        C  0.06476780  0.30126637  0.69886708    -0.05400
H894        H  0.95377222  0.24401656  0.69883127     0.08300
H895        H  0.09891756  0.32934625  0.69403858     0.09500
Cu896      Cu  0.97910169  0.16442006  0.70843129     0.44200
Cu897      Cu  0.10149831  0.23608112  0.70578782     0.42000
Cu898      Cu  0.05165640  0.11620616  0.70165507     0.43900
N899        N  0.95592680  0.09869401  0.69563271    -0.34100
N900        N  0.98249505  0.08105559  0.69184084    -0.28300
C901        C  0.95872279  0.04083399  0.67583583    -0.04400
C902        C  0.91538885  0.03331601  0.66865560     0.07800
C903        C  0.91453543  0.07014697  0.68254635     0.01600
H904        H  0.97293713  0.02017373  0.66737290     0.09200
H905        H  0.88685909  0.07713614  0.68055646     0.08300
N906        N  0.12106438  0.16036170  0.70295558    -0.35500
N907        N  0.13966456  0.20394144  0.70348440    -0.27700
C908        C  0.18534901  0.22253268  0.69780639    -0.03000
C909        C  0.19593962  0.18902192  0.69388831     0.05700
C910        C  0.15418688  0.15016031  0.69710699     0.03700
H911        H  0.20878951  0.25777439  0.69402538     0.08900
H912        H  0.14794348  0.11702924  0.69189416     0.07700
C913        C  0.69262426  0.73387490  0.80661100    -0.01900
N914        N  0.82812374  0.66113670  0.56439419    -0.02900
C915        C  0.86634102  0.65729126  0.56576448    -0.00300
C916        C  0.88824343  0.66624919  0.52856540    -0.23200
C917        C  0.86315133  0.67594879  0.50339289    -0.23400
C918        C  0.82684086  0.67302123  0.52609624    -0.00400
H919        H  0.91989006  0.66678281  0.52087510     0.13400
H920        H  0.87097310  0.68498896  0.47206519     0.13400
C921        C  0.55718267  0.29231223  0.78616576    -0.01900
N922        N  0.56740873  0.47864796  0.54269619    -0.02900
C923        C  0.56529213  0.51705032  0.54413065    -0.00300
C924        C  0.56260493  0.53094224  0.50628190    -0.23200
C925        C  0.56429615  0.50192827  0.48035943    -0.23400
C926        C  0.56693734  0.47006559  0.50275703    -0.00400
H927        H  0.56128755  0.56043001  0.49832185     0.13400
H928        H  0.57543715  0.51056991  0.94827881     0.13400
C929        C  0.00986568  0.58830991  0.85388337    -0.01900
N930        N  0.78001728  0.46026589  0.59463897    -0.02900
C931        C  0.73950994  0.42252091  0.60526297    -0.00300
C932        C  0.72323148  0.42710926  0.64182976    -0.23200
C933        C  0.75275674  0.46807236  0.65442296    -0.23400
C934        C  0.78778322  0.48821348  0.62564214    -0.00400
H935        H  0.69400171  0.40239829  0.65878368     0.13400
H936        H  0.75077698  0.47909697  0.68395857     0.13400
N937        N  0.17539549  0.23081643  0.84722314    -0.26700
N938        N  0.16096938  0.19055822  0.83386407    -0.34600
C939        C  0.19661372  0.18339523  0.83138192     0.01600
C940        C  0.23489119  0.22062896  0.84451262     0.07700
C941        C  0.22022949  0.25015051  0.85380511    -0.05400
H942        H  0.19492782  0.15350479  0.82050731     0.08300
H943        H  0.24094062  0.28397303  0.86296706     0.09500
Cu944      Cu  0.09349288  0.14783744  0.81913392     0.44200
Cu945      Cu  0.13522697  0.25978215  0.85326845     0.42000
Cu946      Cu  0.02307394  0.19864636  0.81331918     0.43900
N947        N  0.02408504  0.11287551  0.80729842    -0.34100
N948        N  0.99880873  0.13173955  0.80400803    -0.28300
C949        C  0.95539014  0.10031457  0.79779844    -0.04400
C950        C  0.95253715  0.05905017  0.79781173     0.07800
C951        C  0.99722204  0.06886872  0.80360783     0.01600
H952        H  0.92847329  0.10775792  0.79381820     0.09200
H953        H  0.00916883  0.04543403  0.80642811     0.08300
N954        N  0.05045110  0.26242398  0.83460313    -0.35500
N955        N  0.09066617  0.28392115  0.85090302    -0.27700
C956        C  0.09742177  0.32316431  0.86359691    -0.03000
C957        C  0.05953749  0.32635513  0.85494151     0.05700
C958        C  0.03068998  0.28765138  0.83612683     0.03700
H959        H  0.12799507  0.34787000  0.87732426     0.08900
H960        H  0.99774834  0.27846297  0.82454734     0.07700
C961        C  0.06672289  0.51698571  0.87843148    -0.21900
C962        C  0.03021142  0.47478291  0.87163923     0.10100
C963        C  0.98609810  0.46876193  0.86894060     0.10500
C964        C  0.98090088  0.50615283  0.86648483    -0.16800
C965        C  0.01907741  0.54990676  0.86553324    -0.27200
C966        C  0.06099498  0.55422134  0.87899745     0.18800
C967        C  0.03890094  0.43741810  0.86737729     0.12800
C968        C  0.94489411  0.42309404  0.86675259    -0.11600
H969        H  0.94721956  0.50109010  0.86121071     0.13100
C970        C  0.09971317  0.59500417  0.89664458    -0.22400
H971        H  0.09976379  0.52068541  0.88447271     0.08700
C972        C  0.04694016  0.42476412  0.82950290     0.05000
C973        C  0.05341993  0.38820932  0.82656766    -0.19600
C974        C  0.05314667  0.36474950  0.86062281    -0.11900
C975        C  0.04653925  0.37824342  0.89869892     0.13800
C976        C  0.03922065  0.41439325  0.90154565    -0.22400
C977        C  0.04881450  0.44976322  0.79215863    -0.05400
H978        H  0.05901908  0.37796756  0.79753454     0.15300
C979        C  0.04595090  0.35487053  0.93676107    -0.15600
H980        H  0.03340199  0.42450964  0.93056330     0.09600
H981        H  0.13056886  0.60992875  0.87620297     0.07500
H982        H  0.10892445  0.58513951  0.92469606     0.08700
H983        H  0.09119167  0.62030384  0.90566730     0.07700
H984        H  0.94166682  0.40332233  0.89395682     0.02600
H985        H  0.94861254  0.40620721  0.84022230     0.03100
H986        H  0.91282355  0.42431399  0.86458167     0.06600
H987        H  0.05697570  0.43612460  0.76539186     0.05600
H988        H  0.07561942  0.48516103  0.79397683    -0.00200
H989        H  0.01513111  0.44710781  0.78832867     0.01300
H990        H  0.07340066  0.37859440  0.95572978     0.04900
H991        H  0.05123442  0.32635482  0.93177886     0.06900
H992        H  0.01241065  0.34227160  0.95309150     0.07700
C993        C  0.89231767  0.54270224  0.91689129    -0.21900
C994        C  0.90590186  0.53832517  0.95451999     0.10100
C995        C  0.95324484  0.55663108  0.95951020     0.10500
C996        C  0.98524471  0.58130784  0.92797330    -0.16800
C997        C  0.97245227  0.58212815  0.88818730    -0.27200
C998        C  0.92348538  0.56317789  0.88379074     0.18800
C999        C  0.86982643  0.51539388  0.98801749     0.12800
C1000       C  0.97034070  0.54574635  0.99625912    -0.11600
H1001       H  0.02091722  0.59432040  0.93329042     0.13100
C1002       C  0.90057164  0.56211034  0.84568322    -0.22400
H1003       H  0.85588352  0.52748166  0.91295253     0.08700
C1004       C  0.84153295  0.53232773  0.00192051     0.05000
C1005       C  0.81059709  0.51172557  0.03494113    -0.19600
C1006       C  0.80668999  0.47300265  0.55702132    -0.11900
C1007       C  0.83218690  0.45311190  0.54335502     0.13800
C1008       C  0.86362279  0.47215927  0.51026350    -0.22400
C1009       C  0.84446136  0.57290686  0.98280252    -0.05400
H1010       H  0.79059661  0.52598722  0.04643981     0.15300
C1011       C  0.82802824  0.41309298  0.56449975    -0.15600
H1012       H  0.88300623  0.45677200  0.49999683     0.09600
H1013       H  0.91170552  0.59624308  0.83501500     0.07500
H1014       H  0.86280741  0.54624572  0.84987967     0.08700
H1015       H  0.90566696  0.54186791  0.82319143     0.07700
H1016       H  0.96237196  0.51080125  0.99544341     0.02600
H1017       H  0.95345776  0.54959782  0.02342388     0.03100
H1018       H  0.00799737  0.56679838  0.99809186     0.06600
H1019       H  0.82284403  0.58358752  0.99948086     0.05600
H1020       H  0.83206922  0.56590528  0.95219132    -0.00200
H1021       H  0.88039646  0.60055287  0.98171773     0.01300
H1022       H  0.79323224  0.38455398  0.56133138     0.04900
H1023       H  0.83491685  0.41980795  0.59644162     0.06900
H1024       H  0.85272024  0.40377109  0.55174948     0.07700
C1025       C  0.88087197  0.59019262  0.70537043    -0.21900
C1026       C  0.92880732  0.58207636  0.69888286     0.10100
C1027       C  0.92947333  0.54775670  0.65868720     0.10500
C1028       C  0.88174157  0.52091370  0.62783465    -0.16800
C1029       C  0.83258603  0.52616748  0.63664470    -0.27200
C1030       C  0.83307781  0.56246235  0.67528380     0.18800
C1031       C  0.95426122  0.58661543  0.73547630     0.12800
C1032       C  0.96434435  0.53424845  0.65345373    -0.11600
H1033       H  0.88110021  0.49736868  0.60694658     0.13100
C1034       C  0.79284015  0.56747442  0.68645769    -0.22400
H1035       H  0.87803132  0.60751590  0.73084819     0.08700
C1036       C  0.96897801  0.62270869  0.76103432     0.05000
C1037       C  0.98602312  0.62067866  0.79792853    -0.19600
C1038       C  0.99096709  0.58439679  0.81085130    -0.11900
C1039       C  0.98018990  0.55022356  0.78212090     0.13800
C1040       C  0.95818963  0.55039378  0.74769490    -0.22400
C1041       C  0.96792140  0.66435970  0.75075447    -0.05400
H1042       H  0.99467389  0.64797833  0.81764178     0.15300
C1043       C  0.99458978  0.51549924  0.78137809    -0.15600
H1044       H  0.94455202  0.52130962  0.72966332     0.09600
H1045       H  0.80287708  0.60291059  0.68319337     0.07500
H1046       H  0.78196304  0.55647115  0.71796998     0.08700
H1047       H  0.76377666  0.54759615  0.66777479     0.07700
H1048       H  0.97661003  0.54145190  0.62196362     0.02600
H1049       H  0.99301152  0.55211437  0.67320741     0.03100
H1050       H  0.94819256  0.49809161  0.65964437     0.06600
H1051       H  0.00290524  0.69343430  0.75238420     0.05600
H1052       H  0.94471055  0.66828892  0.77240241    -0.00200
H1053       H  0.95661870  0.66473063  0.72036980     0.01300
H1054       H  0.96490858  0.48242820  0.78969740     0.04900
H1055       H  0.02442299  0.52336211  0.79891960     0.06900
H1056       H  0.00660664  0.51327297  0.75069063     0.07700
C1057       C  0.35537774  0.25516373  0.87480157    -0.21900
C1058       C  0.37426560  0.24952925  0.83916437     0.10100
C1059       C  0.34694864  0.23276292  0.80582767     0.10500
C1060       C  0.30120099  0.22262306  0.80875790    -0.16800
C1061       C  0.28243658  0.22933066  0.84409732    -0.27200
C1062       C  0.30962429  0.24513852  0.87777051     0.18800
C1063       C  0.42308721  0.26238899  0.83654604     0.12800
C1064       C  0.36640904  0.22645628  0.76697477    -0.11600
H1065       H  0.28033997  0.21061555  0.78304237     0.13100
C1066       C  0.29027243  0.25004200  0.91722832    -0.22400
H1067       H  0.37667247  0.26772076  0.90024755     0.08700
C1068       C  0.45731923  0.30628283  0.82781643     0.05000
C1069       C  0.50127638  0.31489844  0.81650671    -0.19600
C1070       C  0.51169111  0.28032575  0.81141184    -0.11900
C1071       C  0.48007232  0.23896890  0.83152861     0.13800
C1072       C  0.43523552  0.22983082  0.84081014    -0.22400
C1073       C  0.44695805  0.34360971  0.82816720    -0.05400
H1074       H  0.52569545  0.34827036  0.80650015     0.15300
C1075       C  0.49040740  0.20404750  0.84626703    -0.15600
H1076       H  0.40945472  0.19697116  0.85168254     0.09600
H1077       H  0.28072893  0.27605898  0.91489539     0.07500
H1078       H  0.31547534  0.25975552  0.94084286     0.08700
H1079       H  0.25967277  0.21802336  0.92670655     0.07700
H1080       H  0.37843523  0.20243067  0.77140172     0.02600
H1081       H  0.39562173  0.25862527  0.75580852     0.03100
H1082       H  0.34059185  0.21361162  0.74378758     0.06600
H1083       H  0.47780518  0.37604286  0.82009019     0.05600
H1084       H  0.43429405  0.34601831  0.85843988    -0.00200
H1085       H  0.42048449  0.33741086  0.80652159     0.01300
H1086       H  0.48273133  0.19906868  0.87880035     0.04900
H1087       H  0.52613183  0.21226962  0.84254962     0.06900
H1088       H  0.46839955  0.17215788  0.83175040     0.07700
C1089       C  0.55281004  0.38842970  0.92667751    -0.21900
C1090       C  0.59610129  0.39239068  0.92383822     0.10100
C1091       C  0.62819196  0.41702172  0.95257709     0.10500
C1092       C  0.61550441  0.43909507  0.47805062    -0.16800
C1093       C  0.57171610  0.43460908  0.48213533    -0.27200
C1094       C  0.54197551  0.41149453  0.95492335     0.18800
C1095       C  0.60670844  0.37304262  0.88821597     0.12800
C1096       C  0.67522620  0.42232023  0.95048795    -0.11600
H1097       H  0.64222643  0.46232053  0.49657333     0.13100
C1098       C  0.49704994  0.41033829  0.95079880    -0.22400
H1099       H  0.52818143  0.36959090  0.90460557     0.08700
C1100       C  0.59918176  0.32964450  0.88880037     0.05000
C1101       C  0.59497670  0.30801533  0.85283713    -0.19600
C1102       C  0.59370122  0.32643189  0.81528184    -0.11900
C1103       C  0.61018431  0.37338304  0.81485726     0.13800
C1104       C  0.61551635  0.39530351  0.85128446    -0.22400
C1105       C  0.59185861  0.30369405  0.92690258    -0.05400
H1106       H  0.58589427  0.27381605  0.85555497     0.15300
C1107       C  0.62057278  0.40154096  0.77743466    -0.15600
H1108       H  0.62316716  0.42945386  0.85101536     0.09600
H1109       H  0.46838109  0.37577019  0.95538557     0.07500
H1110       H  0.49583734  0.42220815  0.92037290     0.08700
H1111       H  0.49154052  0.43148315  0.97196043     0.07700
H1112       H  0.69270573  0.43783256  0.92134931     0.02600
H1113       H  0.67262451  0.38943789  0.95379993     0.03100
H1114       H  0.69697323  0.44829925  0.46524477     0.06600
H1115       H  0.55715407  0.27387751  0.92824327     0.05600
H1116       H  0.59521712  0.32325112  0.95358952    -0.00200
H1117       H  0.61773879  0.29301880  0.92764753     0.01300
H1118       H  0.58915120  0.39316351  0.76183791     0.04900
H1119       H  0.64580568  0.39851079  0.75781056     0.06900
H1120       H  0.63633644  0.43729241  0.78402017     0.07700
C1121       C  0.59433263  0.35221325  0.67904445    -0.21900
C1122       C  0.56017161  0.36299993  0.67290229     0.10100
C1123       C  0.52126620  0.34336225  0.69921488     0.10500
C1124       C  0.51886449  0.31574443  0.73113051    -0.16800
C1125       C  0.55726488  0.31268702  0.74318874    -0.27200
C1126       C  0.59422910  0.32848113  0.71372706     0.18800
C1127       C  0.56474887  0.39345725  0.63844441     0.12800
C1128       C  0.48280322  0.35315041  0.69534078    -0.11600
H1129       H  0.48612022  0.29722097  0.74682543     0.13100
C1130       C  0.63362165  0.32030748  0.71754365    -0.22400
H1131       H  0.62114702  0.36248292  0.65621686     0.08700
C1132       C  0.59799654  0.43935231  0.63648343     0.05000
C1133       C  0.59870308  0.46682846  0.60471577    -0.19600
C1134       C  0.56542226  0.45024881  0.57578162    -0.11900
C1135       C  0.53062223  0.40504222  0.57957489     0.13800
C1136       C  0.53259344  0.37699690  0.60877942    -0.22400
C1137       C  0.63163660  0.45977580  0.66872410    -0.05400
H1138       H  0.62491939  0.50151139  0.60275420     0.15300
C1139       C  0.48825777  0.38620612  0.55610507    -0.15600
H1140       H  0.50688976  0.34221083  0.60973588     0.09600
H1141       H  0.65979086  0.33659785  0.69300243     0.07500
H1142       H  0.62128630  0.28440660  0.71552684     0.08700
H1143       H  0.65073622  0.33342289  0.74578510     0.07700
H1144       H  0.46579055  0.34117940  0.66695208     0.02600
H1145       H  0.49658221  0.38945113  0.69657470     0.03100
H1146       H  0.45620526  0.33700479  0.71976974     0.06600
H1147       H  0.65432819  0.49601815  0.66349245     0.05600
H1148       H  0.65343329  0.44447847  0.67001417    -0.00200
H1149       H  0.61290041  0.45436418  0.69790434     0.01300
H1150       H  0.45753035  0.36901346  0.57665535     0.04900
H1151       H  0.48803364  0.36194309  0.53481253     0.06900
H1152       H  0.48525377  0.41252575  0.54048804     0.07700
C1153       C  0.83159720  0.95653219  0.80824655    -0.21900
C1154       C  0.84038725  0.92342850  0.79504539     0.10100
C1155       C  0.88463408  0.93525654  0.78024918     0.10500
C1156       C  0.91954391  0.97987480  0.77999753    -0.16800
C1157       C  0.91172896  0.01345442  0.79454562    -0.27200
C1158       C  0.86641090  0.00137890  0.80809938     0.18800
C1159       C  0.80325733  0.87627427  0.79852576     0.12800
C1160       C  0.89522675  0.90049623  0.76562987    -0.11600
H1161       H  0.95344885  0.98837681  0.76873563     0.13100
C1162       C  0.85384384  0.03451667  0.82348423    -0.22400
H1163       H  0.79727292  0.94697755  0.81929892     0.08700
C1164       C  0.79447122  0.85126445  0.83389727     0.05000
C1165       C  0.75938584  0.80676290  0.83598160    -0.19600
C1166       C  0.73139605  0.78498863  0.80347029    -0.11900
C1167       C  0.74249104  0.81134911  0.76708433     0.13800
C1168       C  0.77761123  0.85605900  0.76563424    -0.22400
C1169       C  0.82320230  0.87134660  0.86944563    -0.05400
H1170       H  0.75678608  0.78924747  0.86313814     0.15300
C1171       C  0.71748499  0.79490263  0.72902796    -0.15600
H1172       H  0.78485666  0.87585944  0.73855199     0.09600
H1173       H  0.87651963  0.05378530  0.84757580     0.07500
H1174       H  0.81807614  0.01815257  0.83602247     0.08700
H1175       H  0.85601375  0.05665505  0.79865387     0.07700
H1176       H  0.87363307  0.88318756  0.74036733     0.02600
H1177       H  0.88809960  0.87590757  0.78998099     0.03100
H1178       H  0.93163508  0.91515035  0.75532472     0.06600
H1179       H  0.81242528  0.84726728  0.89494210     0.05600
H1180       H  0.82012744  0.90006734  0.87939597    -0.00200
H1181       H  0.85961259  0.88268905  0.86131484     0.01300
H1182       H  0.70959161  0.81980139  0.71653813     0.04900
H1183       H  0.68433734  0.76429341  0.73283868     0.06900
H1184       H  0.73908432  0.78903103  0.70716538     0.07700
C1185       C  0.71926241  0.67496166  0.89266597    -0.21900
C1186       C  0.71610640  0.69784414  0.92534944     0.10100
C1187       C  0.69386606  0.72260235  0.92123870     0.10500
C1188       C  0.68164359  0.72910262  0.88305272    -0.16800
C1189       C  0.69220522  0.71228032  0.84833362    -0.27200
C1190       C  0.70384590  0.67835297  0.85535134     0.18800
C1191       C  0.73867825  0.69624478  0.96221934     0.12800
C1192       C  0.68390509  0.74273929  0.95687681    -0.11600
H1193       H  0.66819303  0.75131101  0.87978276     0.13100
C1194       C  0.69839661  0.64253698  0.82721145    -0.22400
H1195       H  0.73313906  0.65309493  0.89661443     0.08700
C1196       C  0.72296955  0.65635365  0.98452827     0.05000
C1197       C  0.74770596  0.64649278  0.50551354    -0.19600
C1198       C  0.79213893  0.68214578  0.50954912    -0.11900
C1199       C  0.81088614  0.72858852  0.99625799     0.13800
C1200       C  0.78172284  0.73251924  0.96974338    -0.22400
C1201       C  0.67573168  0.61764489  0.97968624    -0.05400
H1202       H  0.73818857  0.61466844  0.51873670     0.15300
C1203       C  0.85086648  0.76416058  0.49557264    -0.15600
H1204       H  0.79391555  0.76332882  0.95289766     0.09600
H1205       H  0.67892308  0.60979607  0.84308762     0.07500
H1206       H  0.73238788  0.64736203  0.81761564     0.08700
H1207       H  0.67848017  0.63916249  0.80115771     0.07700
H1208       H  0.71629578  0.76644084  0.97062250     0.02600
H1209       H  0.66173118  0.71612470  0.97906516     0.03100
H1210       H  0.66590891  0.76078458  0.94870531     0.06600
H1211       H  0.66885900  0.58908274  0.99939402     0.05600
H1212       H  0.67148629  0.60634211  0.94859549    -0.00200
H1213       H  0.65015153  0.62778940  0.98746461     0.01300
H1214       H  0.87730122  0.77889924  0.97332847     0.04900
H1215       H  0.87192524  0.75881479  0.51700712     0.06900
H1216       H  0.84603727  0.79150952  0.50673509     0.07700
C1217       C  0.76563716  0.70649589  0.73091202    -0.21900
C1218       C  0.73533529  0.68472266  0.70101192     0.10100
C1219       C  0.68912685  0.67306915  0.70771345     0.10500
C1220       C  0.67588396  0.68825909  0.74171546    -0.16800
C1221       C  0.70683558  0.71276033  0.77147208    -0.27200
C1222       C  0.75258194  0.71984256  0.76585978     0.18800
C1223       C  0.75490582  0.67781731  0.66276637     0.12800
C1224       C  0.65287397  0.64549589  0.67937839    -0.11600
H1225       H  0.64111439  0.68175865  0.74381511     0.13100
C1226       C  0.79014084  0.74161728  0.79500943    -0.22400
H1227       H  0.80072186  0.71374438  0.72662619     0.08700
C1228       C  0.78824672  0.71468681  0.63942098     0.05000
C1229       C  0.81197946  0.70804255  0.60764104    -0.19600
C1230       C  0.80239944  0.66551856  0.59741100    -0.11900
C1231       C  0.76581376  0.62841515  0.61755940     0.13800
C1232       C  0.74362212  0.63487010  0.65110652    -0.22400
C1233       C  0.79843052  0.76120684  0.64737527    -0.05400
H1234       H  0.83839456  0.73624450  0.59045225     0.15300
C1235       C  0.74972333  0.58242693  0.60296233    -0.15600
H1236       H  0.71752242  0.60640778  0.66827653     0.09600
H1237       H  0.81719761  0.77434302  0.78258616     0.07500
H1238       H  0.80564516  0.72051847  0.80001091     0.08700
H1239       H  0.77864606  0.74599450  0.82461691     0.07700
H1240       H  0.62546658  0.61523168  0.69520555     0.02600
H1241       H  0.66593172  0.63501486  0.65357158     0.03100
H1242       H  0.63811868  0.66510604  0.66806042     0.06600
H1243       H  0.82359854  0.78545197  0.62490820     0.05600
H1244       H  0.81302375  0.77172255  0.67697015    -0.00200
H1245       H  0.76646057  0.76272726  0.64609507     0.01300
H1246       H  0.77812202  0.57516885  0.60254242     0.04900
H1247       H  0.73773571  0.57935564  0.57246492     0.06900
H1248       H  0.72051837  0.55700044  0.62177791     0.07700
C1249       C  0.17160940  0.80901639  0.81957307    -0.21900
C1250       C  0.17341303  0.76957406  0.82328384     0.10100
C1251       C  0.21667097  0.77264581  0.81583497     0.10500
C1252       C  0.25604408  0.81433363  0.80734961    -0.16800
C1253       C  0.25518854  0.85438813  0.80759893    -0.27200
C1254       C  0.21160742  0.85111588  0.81259953     0.18800
C1255       C  0.13035355  0.72516474  0.83308544     0.12800
C1256       C  0.22283835  0.73266322  0.81996352    -0.11600
H1257       H  0.28896968  0.81613473  0.80409911     0.13100
C1258       C  0.20563544  0.89109024  0.81260165    -0.22400
H1259       H  0.13875718  0.80725032  0.82287291     0.08700
C1260       C  0.10088251  0.71517992  0.86760146     0.05000
C1261       C  0.06238156  0.67161905  0.87419601    -0.19600
C1262       C  0.05559491  0.63543657  0.85037408    -0.11900
C1263       C  0.08962089  0.64607963  0.81869901     0.13800
C1264       C  0.12108971  0.69037390  0.80806083    -0.22400
C1265       C  0.11045753  0.74970678  0.89818233    -0.05400
H1266       H  0.03832533  0.66603703  0.89865822     0.15300
C1267       C  0.09515637  0.61244568  0.79492097    -0.15600
H1268       H  0.14087360  0.69769010  0.78032011     0.09600
H1269       H  0.19052776  0.89297749  0.84186853     0.07500
H1270       H  0.18216464  0.88804478  0.78899219     0.08700
H1271       H  0.23789009  0.92256891  0.80688939     0.07700
H1272       H  0.20771367  0.70954300  0.79545235     0.02600
H1273       H  0.20663799  0.71452495  0.84853292     0.03100
H1274       H  0.25949123  0.74230701  0.81914135     0.06600
H1275       H  0.08606469  0.73575688  0.92439366     0.05600
H1276       H  0.10731396  0.77733932  0.88531435    -0.00200
H1277       H  0.14555147  0.76266356  0.90877305     0.01300
H1278       H  0.06622573  0.59406507  0.77640185     0.04900
H1279       H  0.10039451  0.58954050  0.81358797     0.06900
H1280       H  0.12581559  0.62848398  0.77432761     0.07700
C1281       C  0.55325064  0.24257722  0.60473325    -0.21900
C1282       C  0.58446133  0.25606446  0.57213375     0.10100
C1283       C  0.57158167  0.23034702  0.53803251     0.10500
C1284       C  0.52649834  0.19458819  0.53580293    -0.16800
C1285       C  0.49167912  0.18327612  0.56656864    -0.27200
C1286       C  0.50807454  0.20656639  0.60304662     0.18800
C1287       C  0.62937570  0.29847073  0.57364537     0.12800
C1288       C  0.60587074  0.24052104  0.50392302    -0.11600
H1289       H  0.51945730  0.17613791  0.50888292     0.13100
C1290       C  0.47972846  0.19619793  0.64134503    -0.22400
H1291       H  0.56391946  0.26133486  0.63176344     0.08700
C1292       C  0.63533924  0.33855753  0.55721459     0.05000
C1293       C  0.67713826  0.37850078  0.56087962    -0.19600
C1294       C  0.71176777  0.38043127  0.58420293    -0.11900
C1295       C  0.70508014  0.33999262  0.60138689     0.13800
C1296       C  0.66501309  0.29958546  0.59456824    -0.22400
C1297       C  0.59559925  0.33984728  0.53983022    -0.05400
H1298       H  0.68018432  0.40931779  0.55014212     0.15300
C1299       C  0.73754924  0.33875202  0.63033349    -0.15600
H1300       H  0.66011837  0.26917302  0.60822192     0.09600
H1301       H  0.48051954  0.22666030  0.65173075     0.07500
H1302       H  0.49499936  0.18464684  0.66371377     0.08700
H1303       H  0.44343167  0.17063588  0.63942279     0.07700
H1304       H  0.63438520  0.23637633  0.51423047     0.02600
H1305       H  0.62003754  0.27518147  0.49298153     0.03100
H1306       H  0.59042721  0.21832949  0.47859207     0.06600
H1307       H  0.60525600  0.37359949  0.52897138     0.05600
H1308       H  0.56768373  0.32936162  0.56304276    -0.00200
H1309       H  0.58229367  0.31685315  0.51494182     0.01300
H1310       H  0.71912984  0.32453434  0.65945398     0.04900
H1311       H  0.76702107  0.37198859  0.63561055     0.06900
H1312       H  0.75100679  0.31758357  0.61870722     0.07700
C1313       C  0.32886038  0.15236995  0.58309993    -0.21900
C1314       C  0.34566191  0.18625710  0.61028721     0.10100
C1315       C  0.39288807  0.21617266  0.60990511     0.10500
C1316       C  0.42214358  0.20896493  0.58426610    -0.16800
C1317       C  0.40649617  0.16807855  0.56512944    -0.27200
C1318       C  0.35842539  0.14514883  0.55804256     0.18800
C1319       C  0.31227454  0.19231458  0.63500225     0.12800
C1320       C  0.41268649  0.25362730  0.63848711    -0.11600
H1321       H  0.45774273  0.23418566  0.58229158     0.13100
C1322       C  0.33881164  0.12836581  0.51790589    -0.22400
H1323       H  0.29224826  0.13369984  0.57922177     0.08700
C1324       C  0.29682054  0.22109327  0.62251273     0.05000
C1325       C  0.26123340  0.22190865  0.64455090    -0.19600
C1326       C  0.23925517  0.19310700  0.67761596    -0.11900
C1327       C  0.25541662  0.16477487  0.69043887     0.13800
C1328       C  0.29174618  0.16478327  0.66888439    -0.22400
C1329       C  0.31538948  0.24847398  0.58434180    -0.05400
H1330       H  0.24836195  0.24290814  0.63416411     0.15300
C1331       C  0.23516078  0.13394632  0.72641577    -0.15600
H1332       H  0.30342505  0.14234126  0.67798815     0.09600
H1333       H  0.33814311  0.15547090  0.50095430     0.07500
H1334       H  0.30304222  0.10040132  0.52147767     0.08700
H1335       H  0.35721216  0.11654027  0.49924756     0.07700
H1336       H  0.40367034  0.23998228  0.66951906     0.02600
H1337       H  0.39926730  0.27640078  0.63385602     0.03100
H1338       H  0.45048495  0.27311353  0.63489618     0.06600
H1339       H  0.29831129  0.26794799  0.57837411     0.05600
H1340       H  0.30964999  0.22638393  0.55892890    -0.00200
H1341       H  0.35251904  0.27212521  0.58571092     0.01300
H1342       H  0.21829257  0.09905271  0.71683459     0.04900
H1343       H  0.20996374  0.13915691  0.74395015     0.06900
H1344       H  0.26274289  0.13951890  0.74658514     0.07700
C1345       C  0.42900666  0.13734560  0.94857068    -0.21900
C1346       C  0.42061098  0.09455576  0.94156743     0.10100
C1347       C  0.42700543  0.07063924  0.97231699     0.10500
C1348       C  0.43644857  0.09230864  0.50742839    -0.16800
C1349       C  0.43694393  0.13228320  0.51540609    -0.27200
C1350       C  0.43946581  0.15876658  0.48136320     0.18800
C1351       C  0.39942786  0.07271187  0.90425221     0.12800
C1352       C  0.42282973  0.02596800  0.96619891    -0.11600
H1353       H  0.44078949  0.07383231  0.53117247     0.13100
C1354       C  0.45206751  0.20681371  0.48275188    -0.22400
H1355       H  0.42521107  0.15609991  0.92471458     0.08700
C1356       C  0.35153885  0.04465989  0.90388356     0.05000
C1357       C  0.33315196  0.01250166  0.87477092    -0.19600
C1358       C  0.36172443  0.00807002  0.84620542    -0.11900
C1359       C  0.40800872  0.04152200  0.84201424     0.13800
C1360       C  0.42697344  0.07328657  0.87171659    -0.22400
C1361       C  0.32027897  0.04638999  0.93599462    -0.05400
H1362       H  0.29725203  0.98727517  0.87739024     0.15300
C1363       C  0.43698495  0.04261948  0.80666745    -0.15600
H1364       H  0.46350650  0.09638519  0.87097814     0.09600
H1365       H  0.42190567  0.21012167  0.47631683     0.07500
H1366       H  0.47959546  0.22623718  0.45973742     0.08700
H1367       H  0.46558237  0.22218855  0.51133783     0.07700
H1368       H  0.45518776  0.02744034  0.97405106     0.02600
H1369       H  0.41616074  0.01498960  0.93510343     0.03100
H1370       H  0.39438849  0.00069125  0.98579019     0.06600
H1371       H  0.28378752  0.02222001  0.93116608     0.05600
H1372       H  0.32444451  0.08006518  0.93608181    -0.00200
H1373       H  0.32768457  0.04583429  0.46442303     0.01300
H1374       H  0.42291924  0.04786357  0.77917592     0.04900
H1375       H  0.43697550  0.01090423  0.80453041     0.06900
H1376       H  0.47266444  0.07009733  0.80850707     0.07700
C1377       C  0.35622066  0.04518757  0.63145729    -0.21900
C1378       C  0.38496582  0.04795402  0.66136028     0.10100
C1379       C  0.43261324  0.07574986  0.65349209     0.10500
C1380       C  0.44924991  0.10282467  0.61827631    -0.16800
C1381       C  0.41994833  0.10569233  0.59058528    -0.27200
C1382       C  0.37307653  0.07006804  0.59530314     0.18800
C1383       C  0.36398734  0.01779016  0.69796248     0.12800
C1384       C  0.46725932  0.07890713  0.68194134    -0.11600
H1385       H  0.48590931  0.12318078  0.61377313     0.13100
C1386       C  0.34044580  0.05049052  0.56236649    -0.22400
H1387       H  0.32017373  0.02047596  0.63510469     0.08700
C1388       C  0.33737557  0.02476923  0.72745779     0.05000
C1389       C  0.31835242  0.99554654  0.76110577    -0.19600
C1390       C  0.32460236  0.95882176  0.76648696    -0.11900
C1391       C  0.34975153  0.95098622  0.73605707     0.13800
C1392       C  0.36880517  0.98020808  0.70241362    -0.22400
C1393       C  0.33057869  0.06420204  0.72433859    -0.05400
H1394       H  0.30041437  0.00270949  0.78458350     0.15300
C1395       C  0.35851822  0.91292223  0.73988014    -0.15600
H1396       H  0.38838249  0.97413660  0.67965796     0.09600
H1397       H  0.32910296  0.01464479  0.56057563     0.07500
H1398       H  0.35581369  0.06432946  0.53302004     0.08700
H1399       H  0.30961097  0.05335474  0.56870901     0.07700
H1400       H  0.49029113  0.06906500  0.66662867     0.02600
H1401       H  0.45168114  0.05767999  0.70910884     0.03100
H1402       H  0.48796742  0.11372418  0.69111443     0.06600
H1403       H  0.31020890  0.06567132  0.75034352     0.05600
H1404       H  0.31211101  0.06230706  0.69713562    -0.00200
H1405       H  0.36431262  0.09524144  0.72290268     0.01300
H1406       H  0.38037727  0.91249421  0.71462479     0.04900
H1407       H  0.32557999  0.88112352  0.74052572     0.06900
H1408       H  0.37613548  0.91562329  0.76773159     0.07700
C1409       C  0.95717629  0.67661700  0.63371772    -0.21900
C1410       C  0.95091625  0.63357566  0.63606743     0.10100
C1411       C  0.90252706  0.59383622  0.63893006     0.10500
C1412       C  0.87948700  0.60593013  0.60813736    -0.16800
C1413       C  0.88680964  0.64890365  0.60103743    -0.27200
C1414       C  0.92392039  0.68423081  0.61835879     0.18800
C1415       C  0.99641788  0.63384342  0.63172175     0.12800
C1416       C  0.86090029  0.51709943  0.69475756    -0.11600
H1417       H  0.85358031  0.58184983  0.58966893     0.13100
C1418       C  0.93200461  0.73070803  0.61493081    -0.22400
H1419       H  0.99043679  0.70485674  0.63924453     0.08700
C1420       C  0.01594597  0.63153427  0.59474169     0.05000
C1421       C  0.05689362  0.62910876  0.59301420    -0.19600
C1422       C  0.08025658  0.62857371  0.62777428    -0.11900
C1423       C  0.06166853  0.63612396  0.66417155     0.13800
C1424       C  0.02444365  0.64393005  0.66391682    -0.22400
C1425       C  0.99493716  0.63467656  0.55704475    -0.05400
H1426       H  0.06838442  0.62473425  0.56390265     0.15300
C1427       C  0.07368920  0.62943313  0.70502602    -0.15600
H1428       H  0.01457874  0.65431038  0.69050310     0.09600
H1429       H  0.93508733  0.74115343  0.58318215     0.07500
H1430       H  0.96380304  0.75474111  0.62934468     0.08700
H1431       H  0.90295000  0.73201724  0.62992953     0.07700
H1432       H  0.86414511  0.52104028  0.72797160     0.02600
H1433       H  0.82307969  0.49394770  0.69835883     0.03100
H1434       H  0.86959264  0.48980946  0.69288567     0.06600
H1435       H  0.99640441  0.66718073  0.55529155     0.05600
H1436       H  0.95849588  0.60825161  0.55714855    -0.00200
H1437       H  0.01348880  0.63228454  0.53014614     0.01300
H1438       H  0.10927193  0.65225060  0.71182990     0.04900
H1439       H  0.06374296  0.59435346  0.70889240     0.06900
H1440       H  0.05391171  0.63555982  0.72860732     0.07700
C1441       C  0.99532999  0.39447627  0.69184927    -0.21900
C1442       C  0.02238298  0.41878818  0.65811173     0.10100
C1443       C  0.04597893  0.40185211  0.63551509     0.10500
C1444       C  0.04350793  0.36223585  0.64799380    -0.16800
C1445       C  0.01899238  0.33938072  0.68303944    -0.27200
C1446       C  0.99338383  0.35499729  0.70473600     0.18800
C1447       C  0.03687006  0.46654722  0.65411705     0.12800
C1448       C  0.07718522  0.42741241  0.60016969    -0.11600
H1449       H  0.06273304  0.35003313  0.63120348     0.13100
C1450       C  0.96617415  0.33283098  0.74281504    -0.22400
H1451       H  0.97843827  0.40816636  0.70993671     0.08700
C1452       C  0.02341425  0.48521964  0.62404903     0.05000
C1453       C  0.04777186  0.53170709  0.61755154    -0.19600
C1454       C  0.08578224  0.56047336  0.63999044    -0.11900
C1455       C  0.09146583  0.54055082  0.67562946     0.13800
C1456       C  0.06912707  0.49441817  0.68014520    -0.22400
C1457       C  0.98367420  0.45641183  0.59896015    -0.05400
H1458       H  0.03942943  0.54519530  0.59225355     0.15300
C1459       C  0.11873382  0.56312670  0.71129111    -0.15600
H1460       H  0.07736318  0.47961898  0.70466598     0.09600
H1461       H  0.92961384  0.32211248  0.73900672     0.07500
H1462       H  0.97885300  0.35666187  0.76731539     0.08700
H1463       H  0.96846877  0.30352155  0.75208698     0.07700
H1464       H  0.10498761  0.45985764  0.60979230     0.02600
H1465       H  0.05778105  0.43282944  0.57709617     0.03100
H1466       H  0.09333927  0.40951358  0.58625941     0.06600
H1467       H  0.97734771  0.47643141  0.57694872     0.05600
H1468       H  0.95227554  0.43768670  0.61845520    -0.00200
H1469       H  0.99003628  0.43247486  0.58252517     0.01300
H1470       H  0.09648875  0.54913113  0.73877940     0.04900
H1471       H  0.13233527  0.59883576  0.71263768     0.06900
H1472       H  0.14696799  0.55583533  0.71305976     0.07700
C1473       C  0.55817396  0.69000439  0.80963304    -0.21900
C1474       C  0.55624524  0.72785260  0.79783481     0.10100
C1475       C  0.59849725  0.76684917  0.78871380     0.10500
C1476       C  0.63969602  0.76802331  0.79589972    -0.16800
C1477       C  0.64318234  0.72959357  0.80350809    -0.27200
C1478       C  0.59992877  0.68941691  0.81085202     0.18800
C1479       C  0.51135213  0.72810531  0.80170098     0.12800
C1480       C  0.60250242  0.80855430  0.77062411    -0.11600
H1481       H  0.66918989  0.80063170  0.79416366     0.13100
C1482       C  0.59569784  0.64544194  0.82203282    -0.22400
H1483       H  0.52645606  0.66044351  0.81881772     0.08700
C1484       C  0.46812223  0.69282935  0.79038158     0.05000
C1485       C  0.42714847  0.69254897  0.80233311    -0.19600
C1486       C  0.42825497  0.72850471  0.82208738    -0.11900
C1487       C  0.47170467  0.76621704  0.82749244     0.13800
C1488       C  0.51159532  0.76417405  0.82024521    -0.22400
C1489       C  0.46379380  0.65520692  0.76566725    -0.05400
H1490       H  0.39435094  0.66326797  0.79785664     0.15300
C1491       C  0.47723876  0.80818276  0.84485246    -0.15600
H1492       H  0.54334131  0.79117863  0.83038727     0.09600
H1493       H  0.55939149  0.61858074  0.82538008     0.07500
H1494       H  0.61052379  0.64676304  0.85110146     0.08700
H1495       H  0.61146045  0.63489402  0.79854135     0.07700
H1496       H  0.61723165  0.83567241  0.79220045     0.02600
H1497       H  0.56958170  0.80414154  0.76110304     0.03100
H1498       H  0.62571118  0.81900626  0.74359974     0.06600
H1499       H  0.44326992  0.65192280  0.73952585     0.05600
H1500       H  0.44622542  0.62380159  0.78368779    -0.00200
H1501       H  0.49730595  0.66068629  0.75383374     0.01300
H1502       H  0.49330217  0.81302844  0.87391050     0.04900
H1503       H  0.44448442  0.80778178  0.84966500     0.06900
H1504       H  0.49967348  0.83669706  0.82445809     0.07700
C1505       C  0.14637721  0.60210796  0.51010303    -0.21900
C1506       C  0.18041488  0.64597744  0.50146010     0.10100
C1507       C  0.19023000  0.67710014  0.53173532     0.10500
C1508       C  0.16471164  0.66338351  0.56815300    -0.16800
C1509       C  0.13575147  0.61812434  0.57987754    -0.27200
C1510       C  0.12897923  0.58666260  0.54931043     0.18800
C1511       C  0.21066066  0.65762579  0.96128585     0.12800
C1512       C  0.22944890  0.72429603  0.52765107    -0.11600
H1513       H  0.17008069  0.68879252  0.58906544     0.13100
C1514       C  0.11043056  0.53751971  0.55487588    -0.22400
H1515       H  0.13817392  0.57952649  0.98562593     0.08700
C1516       C  0.22977917  0.63110362  0.94849222     0.05000
C1517       C  0.26018544  0.64467153  0.91487033    -0.19600
C1518       C  0.27864026  0.68716973  0.89745497    -0.11900
C1519       C  0.26060475  0.71404178  0.91060997     0.13800
C1520       C  0.22370718  0.69693217  0.93906457    -0.22400
C1521       C  0.22605354  0.59406189  0.47379403    -0.05400
H1522       H  0.27563715  0.62496314  0.90635087     0.15300
C1523       C  0.28377571  0.76278811  0.89969593    -0.15600
H1524       H  0.20816454  0.71669738  0.94634760     0.09600
H1525       H  0.11258257  0.52752932  0.58525363     0.07500
H1526       H  0.13176353  0.52729562  0.53703011     0.08700
H1527       H  0.07512550  0.51865568  0.54424657     0.07700
H1528       H  0.22175927  0.74396580  0.50659493     0.02600
H1529       H  0.26131445  0.72467655  0.51761390     0.03100
H1530       H  0.23612880  0.74134385  0.55649165     0.06600
H1531       H  0.24907967  0.58160057  0.96270254     0.05600
H1532       H  0.19202594  0.56426319  0.47088441    -0.00200
H1533       H  0.23218547  0.60266773  0.50557976     0.01300
H1534       H  0.25835559  0.77184564  0.89026327     0.04900
H1535       H  0.31043221  0.77254746  0.87539721     0.06900
H1536       H  0.30016870  0.78224919  0.92625087     0.07700
C1537       C  0.22726686  0.63634742  0.68047840    -0.21900
C1538       C  0.23296623  0.67035826  0.70568931     0.10100
C1539       C  0.20980498  0.69360662  0.69557398     0.10500
C1540       C  0.17537327  0.67616188  0.66704192    -0.16800
C1541       C  0.16162411  0.63523763  0.64875668    -0.27200
C1542       C  0.19371048  0.61956503  0.65144133     0.18800
C1543       C  0.26319084  0.67983653  0.74123251     0.12800
C1544       C  0.22015020  0.73697105  0.71338468    -0.11600
H1545       H  0.15769453  0.69405068  0.66049364     0.13100
C1546       C  0.19299870  0.58407606  0.62557789    -0.22400
H1547       H  0.24875143  0.62182976  0.68432517     0.08700
C1548       C  0.25315240  0.64718926  0.77178702     0.05000
C1549       C  0.28161294  0.65719942  0.80447341    -0.19600
C1550       C  0.32022908  0.69907396  0.80857526    -0.11900
C1551       C  0.33069787  0.73159988  0.77812301     0.13800
C1552       C  0.30337152  0.72113912  0.74444449    -0.22400
C1553       C  0.21181588  0.60160194  0.77108472    -0.05400
H1554       H  0.27327085  0.63221068  0.82758678     0.15300
C1555       C  0.36833467  0.77863435  0.78138298    -0.15600
H1556       H  0.31276891  0.74621494  0.72112325     0.09600
H1557       H  0.22169215  0.57821426  0.63146283     0.07500
H1558       H  0.19730321  0.59428936  0.59378432     0.08700
H1559       H  0.16161268  0.55201395  0.63167744     0.07700
H1560       H  0.23329079  0.76305597  0.68943344     0.02600
H1561       H  0.24587406  0.74817849  0.73627351     0.03100
H1562       H  0.18845169  0.73420104  0.72697124     0.06600
H1563       H  0.20800988  0.58137055  0.79814400     0.05600
H1564       H  0.21488257  0.58361265  0.74524121    -0.00200
H1565       H  0.18068619  0.60437053  0.76987057     0.01300
H1566       H  0.39470239  0.78697394  0.75707299     0.04900
H1567       H  0.38465581  0.78496377  0.81023980     0.06900
H1568       H  0.35373472  0.80080985  0.77880930     0.07700
C1569       C  0.55003185  0.09344862  0.75724139    -0.21900
C1570       C  0.56554185  0.12582630  0.78687150     0.10100
C1571       C  0.57435404  0.11362440  0.82456277     0.10500
C1572       C  0.56875875  0.07117442  0.83080217    -0.16800
C1573       C  0.54668260  0.03708460  0.80350521    -0.27200
C1574       C  0.53869305  0.04899758  0.76566970     0.18800
C1575       C  0.56799884  0.17000421  0.77916054     0.12800
C1576       C  0.58455220  0.14199462  0.86070739    -0.11600
H1577       H  0.57443656  0.06238910  0.86021834     0.13100
C1578       C  0.51579483  0.01424969  0.73511298    -0.22400
H1579       H  0.54378750  0.10220683  0.72817458     0.08700
C1580       C  0.60678278  0.21137313  0.78699361     0.05000
C1581       C  0.60303888  0.24991887  0.78836086    -0.19600
C1582       C  0.56258373  0.25021846  0.77865772    -0.11900
C1583       C  0.52780099  0.21035517  0.76193630     0.13800
C1584       C  0.52976919  0.17073513  0.76488317    -0.22400
C1585       C  0.65283760  0.21613682  0.79386167    -0.05400
H1586       H  0.63281935  0.28025773  0.79676460     0.15300
C1587       C  0.48813434  0.20842465  0.74108642    -0.15600
H1588       H  0.50056236  0.13976613  0.75674546     0.09600
H1589       H  0.51346974  0.02883931  0.70654310     0.07500
H1590       H  0.48059677  0.98958890  0.74603878     0.08700
H1591       H  0.53574602  0.99733033  0.72924430     0.07700
H1592       H  0.58220052  0.17215221  0.85582701     0.02600
H1593       H  0.61924957  0.15168574  0.87058293     0.03100
H1594       H  0.55914270  0.12267566  0.88525479     0.06600
H1595       H  0.67849552  0.24048827  0.77175241     0.05600
H1596       H  0.65294724  0.18459739  0.79040350    -0.00200
H1597       H  0.66351902  0.22836460  0.82421352     0.01300
H1598       H  0.46522323  0.17492754  0.72967878     0.04900
H1599       H  0.50170372  0.23223421  0.71558655     0.06900
H1600       H  0.46641567  0.21640328  0.76036794     0.07700
C1601       C  0.57969123  0.69393295  0.63458790    -0.21900
C1602       C  0.57118593  0.67005646  0.59956091     0.10100
C1603       C  0.56454848  0.68860281  0.56498627     0.10500
C1604       C  0.57030082  0.73156511  0.56533326    -0.16800
C1605       C  0.58368576  0.75895745  0.59943526    -0.27200
C1606       C  0.58741044  0.73786819  0.63507544     0.18800
C1607       C  0.57284187  0.62757106  0.59811180     0.12800
C1608       C  0.55275352  0.66338177  0.52683532    -0.11600
H1609       H  0.56886508  0.74450023  0.53665543     0.13100
C1610       C  0.60184575  0.76003446  0.67442552    -0.22400
H1611       H  0.58201530  0.67880990  0.66190640     0.08700
C1612       C  0.61326444  0.62757684  0.58525807     0.05000
C1613       C  0.61172495  0.58711941  0.57726350    -0.19600
C1614       C  0.57008674  0.54659642  0.57792529    -0.11900
C1615       C  0.53065423  0.54621510  0.59431715     0.13800
C1616       C  0.53252196  0.58641961  0.60458052    -0.22400
C1617       C  0.65741867  0.67044263  0.57645701    -0.05400
H1618       H  0.64209404  0.58800628  0.56460100     0.15300
C1619       C  0.48529451  0.50393114  0.59836080    -0.15600
H1620       H  0.50144591  0.58583390  0.61483211     0.09600
H1621       H  0.63346079  0.76047359  0.68288611     0.07500
H1622       H  0.57446757  0.74103389  0.69769490     0.08700
H1623       H  0.60895911  0.79431108  0.67448973     0.07700
H1624       H  0.52023897  0.63145442  0.53161714     0.02600
H1625       H  0.58030965  0.65650925  0.51727744     0.03100
H1626       H  0.54830033  0.68208958  0.50221296     0.06600
H1627       H  0.68588163  0.66458474  0.56753754     0.05600
H1628       H  0.66756689  0.69136638  0.60301070    -0.00200
H1629       H  0.65306102  0.68895432  0.55168626     0.01300
H1630       H  0.47222858  0.49859205  0.62985747     0.04900
H1631       H  0.48806275  0.47469155  0.58963597     0.06900
H1632       H  0.46036438  0.50623187  0.57930555     0.07700
C1633       C  0.73419163  0.85728158  0.59077012    -0.21900
C1634       C  0.74854448  0.89221158  0.61694673     0.10100
C1635       C  0.71587172  0.89506979  0.64161080     0.10500
C1636       C  0.66943018  0.86646078  0.63611493    -0.16800
C1637       C  0.65327048  0.83540958  0.60508372    -0.27200
C1638       C  0.68720357  0.82747338  0.58577949     0.18800
C1639       C  0.79771016  0.92520467  0.62017773     0.12800
C1640       C  0.73017851  0.92850097  0.67416031    -0.11600
H1641       H  0.64634038  0.86932310  0.65701676     0.13100
C1642       C  0.67589493  0.78876073  0.55944775    -0.22400
H1643       H  0.75997868  0.85348356  0.57405627     0.08700
C1644       C  0.82572426  0.91685539  0.64461942     0.05000
C1645       C  0.86585699  0.95266704  0.65850226    -0.19600
C1646       C  0.87904358  0.99640879  0.64705753    -0.11900
C1647       C  0.85443025  0.00392720  0.61768288     0.13800
C1648       C  0.81345179  0.96828569  0.60536179    -0.22400
C1649       C  0.81198065  0.87028975  0.65705330    -0.05400
H1650       H  0.88556400  0.94664812  0.67985601     0.15300
C1651       C  0.87017059  0.04884226  0.59861597    -0.15600
H1652       H  0.79246497  0.97442568  0.58555759     0.09600
H1653       H  0.65961389  0.75780197  0.57783728     0.07500
H1654       H  0.70701490  0.79100941  0.54482824     0.08700
H1655       H  0.65351752  0.78686383  0.53542576     0.07700
H1656       H  0.74947194  0.96266693  0.66113710     0.02600
H1657       H  0.75201278  0.92330097  0.69490323     0.03100
H1658       H  0.70046767  0.92562143  0.69173182     0.06600
H1659       H  0.83623196  0.86906387  0.67768243     0.05600
H1660       H  0.81078817  0.85138769  0.63029939    -0.00200
H1661       H  0.77757588  0.85440128  0.67184783     0.01300
H1662       H  0.87090648  0.04630662  0.56572918     0.04900
H1663       H  0.90521738  0.07404936  0.60635099     0.06900
H1664       H  0.84601817  0.06042404  0.60749012     0.07700
C1665       C  0.60642031  0.86965318  0.49124316    -0.21900
C1666       C  0.56006873  0.84718282  0.48217121     0.10100
C1667       C  0.53056752  0.80858884  0.50530024     0.10500
C1668       C  0.54533994  0.80052241  0.54130065    -0.16800
C1669       C  0.59195720  0.82283207  0.55154538    -0.27200
C1670       C  0.62376659  0.85634005  0.52286925     0.18800
C1671       C  0.53470528  0.86045528  0.94902868     0.12800
C1672       C  0.48383646  0.77439477  0.49260284    -0.11600
H1673       H  0.52004247  0.77424351  0.56101545     0.13100
C1674       C  0.67556130  0.88085533  0.52329096    -0.22400
H1675       H  0.62984374  0.89877190  0.47340455     0.08700
C1676       C  0.49426140  0.86334772  0.94927536     0.05000
C1677       C  0.48439327  0.88027153  0.91540759    -0.19600
C1678       C  0.51854061  0.90635342  0.88590398    -0.11900
C1679       C  0.56088976  0.90715950  0.88758137     0.13800
C1680       C  0.56576974  0.87992916  0.91588355    -0.22400
C1681       C  0.47545080  0.85951567  0.49116771    -0.05400
H1682       H  0.45136299  0.87828569  0.91518430     0.15300
C1683       C  0.60391272  0.94064379  0.86527387    -0.15600
H1684       H  0.59708876  0.87848223  0.91447660     0.09600
H1685       H  0.69178953  0.90773086  0.50006598     0.07500
H1686       H  0.68865556  0.85843734  0.51551912     0.08700
H1687       H  0.68897012  0.89764137  0.55135872     0.07700
H1688       H  0.47034936  0.73810478  0.99504497     0.02600
H1689       H  0.47635734  0.78247682  0.46296422     0.03100
H1690       H  0.45715785  0.77113692  0.51482662     0.06600
H1691       H  0.47203120  0.88881856  0.49831630     0.05600
H1692       H  0.49097353  0.85370708  0.51722534    -0.00200
H1693       H  0.44072004  0.83072217  0.48754146     0.01300
H1694       H  0.63279982  0.95480485  0.88562173     0.04900
H1695       H  0.61242129  0.92434132  0.84090480     0.06900
H1696       H  0.60151749  0.96931048  0.85434288     0.07700
C1697       C  0.57075590  0.88874041  0.65808842    -0.21900
C1698       C  0.54501587  0.86122125  0.69041197     0.10100
C1699       C  0.52572684  0.81485148  0.68584688     0.10500
C1700       C  0.53939936  0.79864761  0.65243156    -0.16800
C1701       C  0.57355852  0.82740027  0.62375730    -0.27200
C1702       C  0.58365040  0.87293422  0.62450462     0.18800
C1703       C  0.54042144  0.88351609  0.72747478     0.12800
C1704       C  0.49155811  0.78139851  0.71580168    -0.11600
H1705       H  0.52503552  0.76322462  0.65056766     0.13100
C1706       C  0.60967580  0.90702655  0.59174779    -0.22400
H1707       H  0.58219904  0.92381564  0.65985582     0.08700
C1708       C  0.57965994  0.91534977  0.74709336     0.05000
C1709       C  0.57569004  0.94220762  0.77638830    -0.19600
C1710       C  0.53290925  0.93444257  0.79121011    -0.11900
C1711       C  0.49347473  0.90198321  0.77238558     0.13800
C1712       C  0.49779699  0.87825161  0.74004891    -0.22400
C1713       C  0.62634839  0.92095143  0.73876214    -0.05400
H1714       H  0.60644600  0.96857986  0.78833856     0.15300
C1715       C  0.44665870  0.89277616  0.78607423    -0.15600
H1716       H  0.46768777  0.85529718  0.72463053     0.09600
H1717       H  0.61468013  0.94018896  0.59887648     0.07500
H1718       H  0.58995632  0.89741556  0.56446137     0.08700
H1719       H  0.64417830  0.91183799  0.58699723     0.07700
H1720       H  0.45825924  0.76146478  0.70176136     0.02600
H1721       H  0.48604320  0.79672082  0.74255270     0.03100
H1722       H  0.50363158  0.75871279  0.72551493     0.06600
H1723       H  0.64981960  0.95449944  0.72560050     0.05600
H1724       H  0.62552642  0.89570845  0.71851332    -0.00200
H1725       H  0.64017200  0.91707688  0.76703253     0.01300
H1726       H  0.42021716  0.87000094  0.76598621     0.04900
H1727       H  0.44551599  0.92392367  0.78613475     0.06900
H1728       H  0.43808487  0.87768387  0.81657394     0.07700
loop_ 
_geom_bond_atom_site_label_1 
_geom_bond_atom_site_label_2 
_geom_bond_distance 
_geom_bond_site_symmetry_2 
_ccdc_geom_bond_type 
C1          C741   1.604       .  S
C1          C773   1.579       .  S
C1          C805   1.590       .  S
C1          C837   1.610       .  S
N2            C6   1.375       .  A
N2            C3   1.377       .  A
N2          C846   1.460       .  S
C3            C4   1.386       .  A
C3          C709   1.506   1_565  S
C4            C5   1.355       .  A
C4            H7   1.081   1_565  S
C5            C6   1.382       .  A
C5            H8   1.082       .  S
C6          C814   1.512       .  S
N9           C13   1.372       .  A
N9           C10   1.373       .  A
N9          C686   1.461       .  S
C10          C11   1.385       .  A
C10         C622   1.494       .  S
C11          C12   1.354       .  A
C11          H14   1.079       .  S
C12          C13   1.376       .  A
C12          H15   1.083       .  S
C13         C654   1.479       .  S
C16         C558   1.622       .  S
C16         C590   1.576       .  S
C16         C645   1.595       .  S
C16         C677   1.599       .  S
C17         C421   1.618       .  S
C17         C453   1.591       .  S
C17         C485   1.559       .  S
C17         C517   1.617       .  S
N18          C22   1.362       .  A
N18          C19   1.380       .  A
N18         C526   1.459       .  S
C19          C20   1.385       .  A
C19         C389   1.505       .  S
C20          C21   1.361       .  A
C20          H23   1.083       .  S
C21          C22   1.377       .  A
C21          H24   1.083       .  S
C22         C494   1.479   1_565  S
N25          C29   1.342       .  A
N25          N26   1.321       .  A
N25         Cu33   2.068       .  S
N26          C27   1.345   1_455  A
N26         Cu32   2.064   1_455  S
C27          C28   1.383   1_655  A
C27          H30   1.082       .  S
C28          C29   1.384       .  A
C28         C581   1.477       .  S
C29          H31   1.082       .  S
Cu32         N35   2.064       .  S
Cu33         N43   2.068       .  S
Cu34         N36   2.071   1_455  S
Cu34         N42   2.071       .  S
N35          C39   1.340       .  A
N35          N36   1.321       .  A
N36          C37   1.347       .  A
C37          C38   1.384       .  A
C37          H40   1.082       .  S
C38          C39   1.382       .  A
C38         C782   1.478   1_545  S
C39          H41   1.083       .  S
N42          C46   1.343       .  A
N42          N43   1.322       .  A
N43          C44   1.344       .  A
C44          C45   1.383       .  A
C44          H47   1.082       .  S
C45          C46   1.383       .  A
C45         C462   1.474       .  S
C46          H48   1.082       .  S
C49         C302   1.599       .  S
C49         C325   1.576       .  S
C49         C357   1.564       .  S
C49         C613   1.603       .  S
N50          C54   1.362       .  A
N50          C51   1.368       .  A
N50         C366   1.438       .  S
C51          C52   1.380       .  A
C51         C549   1.498       .  S
C52          C53   1.375       .  A
C52          H55   1.082       .  S
C53          C54   1.381       .  A
C53          H56   1.082   1_554  S
C54         C334   1.494       .  S
C57         C206   1.587       .  S
C57         C238   1.592       .  S
C57         C261   1.605       .  S
C57         C718   1.585       .  S
N58          C62   1.375       .  A
N58          C59   1.374       .  A
N58         C270   1.460       .  S
C59          C60   1.380       .  A
C59         C750   1.490       .  S
C60          C61   1.359   1_554  A
C60          H63   1.083   1_554  S
C61          C62   1.379   1_556  A
C61         H928   1.083       .  S
C62         C229   1.490   1_554  S
H64         C925   1.083       .  S
C65         C101   1.571       .  S
C65         C133   1.610   1_455  S
C65         C174   1.585   1_455  S
C65         C398   1.591       .  S
N66          C70   1.374       .  A
N66          C67   1.380       .  A
N66         C142   1.458       .  S
C67          C68   1.372       .  A
C67         C430   1.495       .  S
C68          C69   1.352       .  A
C68          H71   1.077       .  S
C69          C70   1.383       .  A
C69          H72   1.079       .  S
C70         C165   1.500       .  S
N73          C77   1.344       .  A
N73          N74   1.322       .  A
N73         Cu81   2.075       .  S
N74          C75   1.347       .  A
N74         Cu80   2.081       .  S
C75          C76   1.386       .  A
C75          H78   1.082       .  S
C76          C77   1.383       .  A
C76         C197   1.481       .  S
C77          H79   1.082       .  S
Cu80         N83   2.082       .  S
Cu81         N91   2.075       .  S
Cu82         N84   2.073   1_455  S
Cu82         N90   2.073       .  S
N83          C87   1.344   1_455  A
N83          N84   1.320   1_455  A
N84          C85   1.345       .  A
C85          C86   1.391       .  A
C85          H88   1.077       .  S
C86          C87   1.391       .  A
C86         C293   1.498       .  S
C87          H89   1.081   1_655  S
N90          C94   1.344       .  A
N90          N91   1.322       .  A
N91          C92   1.347       .  A
C92          C93   1.383       .  A
C92          H95   1.082       .  S
C93          C94   1.382       .  A
C93         C110   1.476       .  S
C94          H96   1.082       .  S
C97          C98   1.394       .  A
C97         C102   1.407       .  A
C97         H107   1.085       .  S
C98          C99   1.403   1_455  A
C98         C103   1.478       .  S
C99         C104   1.507       .  S
C99         C100   1.400       .  A
C100        C101   1.418   1_655  A
C100        H105   1.083       .  S
C101        C102   1.443       .  A
C102        C106   1.518       .  S
C103        C108   1.411       .  A
C103        C112   1.400       .  A
C104        H120   1.110       .  S
C104        H121   1.110       .  S
C104        H122   1.111       .  S
C106        H117   1.106       .  S
C106        H118   1.110       .  S
C106        H119   1.102       .  S
C108        C113   1.508       .  S
C108        C109   1.401       .  A
C109        C110   1.403       .  A
C109        H114   1.085       .  S
C110        C111   1.417       .  A
C111        C115   1.507       .  S
C111        C112   1.404       .  A
C112        H116   1.085       .  S
C113        H123   1.111       .  S
C113        H124   1.111       .  S
C113        H125   1.108       .  S
C115        H126   1.110       .  S
C115        H127   1.106       .  S
C115        H128   1.111       .  S
C129        C130   1.393       .  A
C129        C134   1.417       .  A
C129        H139   1.084       .  S
C130        C131   1.409       .  A
C130        C135   1.513       .  S
C131        C136   1.506       .  S
C131        C132   1.415       .  A
C132        C133   1.425       .  A
C132        H137   1.074   1_655  S
C133        C134   1.458       .  A
C134        C138   1.514       .  S
C135        C140   1.418       .  A
C135       C1008   1.408       .  A
C136        H152   1.109       .  S
C136        H153   1.104       .  S
C136        H154   1.111   1_655  S
C138        H149   1.105       .  S
C138        H150   1.111       .  S
C138        H151   1.105       .  S
C140        C145   1.505       .  S
C140        C141   1.410       .  A
C141       C1006   1.404       .  A
C141        H146   1.084       .  S
C142        C143   1.416       .  A
C142       C1005   1.405       .  A
C143        C147   1.500       .  S
C143        C144   1.417       .  A
C144        C999   1.409   1_554  A
C144        H148   1.082   1_554  S
C145        H155   1.110       .  S
C145        H156   1.108       .  S
C145        H157   1.109       .  S
C147        H158   1.107       .  S
C147        H159   1.109       .  S
C147        H160   1.110       .  S
C161        C162   1.786       .  A
C161        C166   1.767       .  A
C161        H171   1.081       .  S
C162        C163   1.824       .  A
C162        C167   1.494       .  S
C163        C168   1.484       .  S
C163        C164   1.789       .  A
C164        C165   1.779       .  A
C164        H169   1.078       .  S
C165        C166   1.813       .  A
C166        C170   1.493       .  S
C167        C172   1.412       .  A
C167        C176   1.396       .  A
C168        H184   1.105       .  S
C168        H185   1.103       .  S
C168        H186   1.109       .  S
C170        H181   1.109       .  S
C170        H182   1.110       .  S
C170        H183   1.099       .  S
C172        C177   1.509       .  S
C172        C173   1.400       .  A
C173        C174   1.423       .  A
C173        H178   1.085       .  S
C174        C175   1.448       .  A
C175        C179   1.512       .  S
C175        C176   1.406       .  A
C176        H180   1.080       .  S
C177        H187   1.111   1_655  S
C177        H188   1.111       .  S
C177        H189   1.105       .  S
C179        H190   1.108       .  S
C179        H191   1.104   1_655  S
C179        H192   1.112       .  S
C193        C194   1.399       .  A
C193        C198   1.404       .  A
C193        H203   1.085       .  S
C194        C195   1.412       .  A
C194        C199   1.479       .  S
C195        C200   1.509       .  S
C195        C196   1.403       .  A
C196        C197   1.404       .  A
C196        H201   1.084       .  S
C197        C198   1.418       .  A
C198        C202   1.507       .  S
C199        C204   1.402       .  A
C199        C208   1.394       .  A
C200        H216   1.110       .  S
C200        H217   1.110       .  S
C200        H218   1.110       .  S
C202        H213   1.110       .  S
C202        H214   1.111       .  S
C202        H215   1.107       .  S
C204        C209   1.507       .  S
C204        C205   1.400       .  A
C205        C206   1.422       .  A
C205        H210   1.079       .  S
C206        C207   1.443       .  A
C207        C211   1.512       .  S
C207        C208   1.407       .  A
C208        H212   1.085       .  S
C209        H219   1.111       .  S
C209        H220   1.110       .  S
C209        H221   1.110       .  S
C211        H222   1.107       .  S
C211        H223   1.092       .  S
C211        H224   1.111       .  S
C225        C226   1.399       .  A
C225        C230   1.404       .  A
C225        H235   1.085       .  S
C226        C227   1.415       .  A
C226        C231   1.501       .  S
C227        C232   1.504       .  S
C227       C1092   1.418       .  A
C228        C229   1.409       .  A
C228       C1091   1.417       .  A
C228        H233   1.084   1_556  S
C229       C1094   1.422       .  A
C230        C234   1.509       .  S
C230       C1093   1.423       .  A
C231        C236   1.405       .  A
C231        C240   1.399       .  A
C232        H248   1.110       .  S
C232        H249   1.110       .  S
C232       H1114   1.111       .  S
C234        H245   1.110       .  S
C234        H246   1.111       .  S
C234        H247   1.104       .  S
C236        C241   1.501       .  S
C236        C237   1.406       .  A
C237        C238   1.423       .  A
C237        H242   1.074       .  S
C238        C239   1.442       .  A
C239        C243   1.508       .  S
C239        C240   1.416       .  A
C240        H244   1.084       .  S
C241        H251   1.110       .  S
C241        H252   1.103       .  S
C241        H253   1.110       .  S
C243        H254   1.104       .  S
C243        H255   1.107       .  S
C243        H256   1.111       .  S
H250       C1096   1.111       .  S
C257        C258   1.402       .  A
C257        C262   1.422       .  A
C257        H267   1.081       .  S
C258        C259   1.411       .  A
C258        C263   1.515       .  S
C259        C264   1.509       .  S
C259        C260   1.411       .  A
C260        C261   1.425       .  A
C260        H265   1.077       .  S
C261        C262   1.437       .  A
C262        C266   1.504       .  S
C263        C268   1.422       .  A
C263        C272   1.404       .  A
C264        H280   1.106       .  S
C264        H281   1.110       .  S
C264        H282   1.111       .  S
C266        H277   1.109       .  S
C266        H278   1.107       .  S
C266        H279   1.107       .  S
C268        C273   1.506       .  S
C268        C269   1.420       .  A
C269        C270   1.407       .  A
C269        H274   1.083       .  S
C270        C271   1.419       .  A
C271        C275   1.501       .  S
C271        C272   1.409       .  A
C272        H276   1.083       .  S
C273        H283   1.111       .  S
C273        H284   1.108       .  S
C273        H285   1.110       .  S
C275        H286   1.111       .  S
C275        H287   1.110       .  S
C275        H288   1.103       .  S
C289        C290   1.399       .  A
C289        C294   1.407       .  A
C289        H299   1.084       .  S
C290        C291   1.408       .  A
C290        C295   1.485       .  S
C291        C296   1.506       .  S
C291        C292   1.403       .  A
C292        C293   1.409   1_565  A
C292        H297   1.083       .  S
C293        C294   1.424   1_545  A
C294        C298   1.506   1_565  S
C295        C300   1.402       .  A
C295        C304   1.390       .  A
C296        H312   1.109       .  S
C296        H313   1.111       .  S
C296        H314   1.111       .  S
C298        H309   1.110       .  S
C298        H310   1.111       .  S
C298        H311   1.108       .  S
C300        C305   1.509       .  S
C300        C301   1.404       .  A
C301        C302   1.424       .  A
C301        H306   1.070       .  S
C302        C303   1.448       .  A
C303        C307   1.511       .  S
C303        C304   1.405       .  A
C304        H308   1.083       .  S
C305        H315   1.111       .  S
C305        H316   1.110       .  S
C305        H317   1.110       .  S
C307        H318   1.111       .  S
C307        H319   1.096       .  S
C307        H320   1.108       .  S
C321        C322   1.392       .  A
C321        C326   1.395       .  A
C321        H331   1.085       .  S
C322        C323   1.407       .  A
C322        C327   1.483       .  S
C323        C328   1.504       .  S
C323        C324   1.410       .  A
C324        C325   1.419       .  A
C324        H329   1.084       .  S
C325        C326   1.445       .  A
C326        C330   1.516       .  S
C327        C332   1.411       .  A
C327        C336   1.402       .  A
C328        H344   1.110       .  S
C328        H345   1.110       .  S
C328        H346   1.111       .  S
C330        H341   1.111       .  S
C330        H342   1.110       .  S
C330        H343   1.093       .  S
C332        C337   1.506       .  S
C332       C1197   1.404       .  A
C333        C334   1.403       .  A
C333       C1196   1.408   1_554  A
C333        H338   1.079       .  S
C334       C1199   1.417   1_554  A
C335       C1203   1.506       .  S
C335        C336   1.403       .  A
C335       C1198   1.415       .  A
C336        H340   1.085       .  S
C337        H347   1.110       .  S
C337        H348   1.108       .  S
C337        H349   1.110       .  S
C339       C1199   1.506   1_554  S
C339        H351   1.109       .  S
C339        H352   1.110       .  S
C339       H1214   1.110   1_554  S
H350       C1203   1.110       .  S
C353        C354   1.392       .  A
C353        C358   1.398       .  A
C353        H363   1.085       .  S
C354        C355   1.411       .  A
C354        C359   1.490       .  S
C355        C360   1.501       .  S
C355        C356   1.408       .  A
C356        C357   1.416       .  A
C356        H361   1.081       .  S
C357        C358   1.443       .  A
C358        C362   1.514       .  S
C359        C364   1.416       .  A
C359        C368   1.407       .  A
C360        H376   1.110       .  S
C360        H377   1.106       .  S
C360        H378   1.103       .  S
C362        H373   1.111       .  S
C362        H374   1.111       .  S
C362        H375   1.096       .  S
C364        C369   1.507       .  S
C364        C365   1.400       .  A
C365        C366   1.398       .  A
C365        H370   1.083       .  S
C366        C367   1.409       .  A
C367        C371   1.504       .  S
C367        C368   1.410       .  A
C368        H372   1.083       .  S
C369        H379   1.111       .  S
C369        H380   1.108       .  S
C369        H381   1.110       .  S
C371        H382   1.107       .  S
C371        H383   1.105       .  S
C371        H384   1.110       .  S
C385        C386   1.409       .  A
C385        C390   1.418       .  A
C385        H395   1.082       .  S
C386        C387   1.425       .  A
C386        C391   1.522       .  S
C387        C392   1.515       .  S
C387        C388   1.413       .  A
C388        C389   1.410       .  A
C388        H393   1.085       .  S
C389        C390   1.421       .  A
C390        C394   1.505       .  S
C391        C396   1.423       .  A
C391        C400   1.390       .  A
C392        H408   1.103       .  S
C392        H409   1.108       .  S
C392        H410   1.108       .  S
C394        H405   1.110       .  S
C394        H406   1.110       .  S
C394        H407   1.104       .  S
C396        C401   1.505       .  S
C396        C397   1.427       .  A
C397        C398   1.421       .  A
C397        H402   1.080       .  S
C398        C399   1.441       .  A
C399        C403   1.512       .  S
C399        C400   1.401       .  A
C400        H404   1.080       .  S
C401        H411   1.111       .  S
C401        H412   1.107       .  S
C401        H413   1.111       .  S
C403        H414   1.085       .  S
C403        H415   1.098       .  S
C403        H416   1.106       .  S
C417        C418   1.399       .  A
C417        C422   1.418       .  A
C417        H427   1.085       .  S
C418        C419   1.402       .  A
C418        C423   1.505       .  S
C419        C424   1.506       .  S
C419        C420   1.409       .  A
C420        C421   1.432       .  A
C420        H425   1.078       .  S
C421        C422   1.443       .  A
C422        C426   1.503       .  S
C423        C428   1.415       .  A
C423        C432   1.400       .  A
C424        H440   1.110       .  S
C424        H441   1.107   1_554  S
C424        H442   1.111   1_554  S
C426        H437   1.107       .  S
C426        H438   1.109       .  S
C426        H439   1.102       .  S
C428        C433   1.506       .  S
C428        C429   1.416       .  A
C429        C430   1.410       .  A
C429        H434   1.084       .  S
C430        C431   1.427       .  A
C431        C435   1.508       .  S
C431        C432   1.411       .  A
C432        H436   1.084       .  S
C433        H443   1.108       .  S
C433        H444   1.110       .  S
C433        H445   1.108       .  S
C435        H446   1.111       .  S
C435        H447   1.106       .  S
C435        H448   1.110       .  S
C449        C450   1.389       .  A
C449        C454   1.398       .  A
C449        H459   1.086       .  S
C450        C451   1.401       .  A
C450        C455   1.470       .  S
C451        C456   1.506       .  S
C451        C452   1.403       .  A
C452        C453   1.418       .  A
C452        H457   1.075       .  S
C453        C454   1.437       .  A
C454        C458   1.516       .  S
C455        C460   1.409       .  A
C455        C464   1.400       .  A
C456        H472   1.111       .  S
C456        H473   1.108       .  S
C456        H474   1.110       .  S
C458        H469   1.110       .  S
C458        H470   1.111       .  S
C458        H471   1.088       .  S
C460        C465   1.509       .  S
C460        C461   1.400       .  A
C461        C462   1.405       .  A
C461        H466   1.084       .  S
C462        C463   1.415       .  A
C463        C467   1.507       .  S
C463        C464   1.401       .  A
C464        H468   1.085       .  S
C465        H475   1.111       .  S
C465        H476   1.110       .  S
C465        H477   1.108       .  S
C467        H478   1.111       .  S
C467        H479   1.107       .  S
C467        H480   1.110       .  S
C481        C482   1.397       .  A
C481       C1350   1.407       .  A
C481        H491   1.082       .  S
C482        C483   1.413       .  A
C482        C487   1.485       .  S
C483        C488   1.508       .  S
C483       C1348   1.402       .  A
C484        C485   1.412       .  A
C484       C1347   1.401   1_554  A
C484        H489   1.083       .  S
C485        C486   1.440   1_554  A
C486        C490   1.510       .  S
C486       C1345   1.406       .  A
C487        C492   1.412       .  A
C487        C496   1.406       .  A
C488        H504   1.110       .  S
C488        H505   1.108       .  S
C488        H506   1.110       .  S
C490        H501   1.110       .  S
C490        H502   1.110       .  S
C490        H503   1.101   1_556  S
C492        C497   1.506       .  S
C492        C493   1.401       .  A
C493        C494   1.401       .  A
C493        H498   1.085   1_545  S
C494        C495   1.408       .  A
C495        C499   1.501       .  S
C495        C496   1.410       .  A
C496        H500   1.084       .  S
C497        H507   1.111       .  S
C497        H508   1.110       .  S
C497       H1373   1.109       .  S
C499        H510   1.108       .  S
C499        H511   1.109   1_545  S
C499        H512   1.108       .  S
H509       C1361   1.109       .  S
C513        C514   1.392       .  A
C513        C518   1.413       .  A
C513        H523   1.086       .  S
C514        C515   1.416       .  A
C514        C519   1.518       .  S
C515        C520   1.493       .  S
C515        C516   1.419       .  A
C516        C517   1.418       .  A
C516        H521   1.080       .  S
C517        C518   1.447       .  A
C518        C522   1.501       .  S
C519        C524   1.420       .  A
C519        C528   1.407   1_545  A
C520        H536   1.110       .  S
C520        H537   1.105       .  S
C520        H538   1.107       .  S
C522        H533   1.112       .  S
C522        H534   1.087       .  S
C522        H535   1.109       .  S
C524        C529   1.507       .  S
C524        C525   1.418   1_545  A
C525        C526   1.408       .  A
C525        H530   1.082       .  S
C526        C527   1.419       .  A
C527        C531   1.501       .  S
C527        C528   1.416       .  A
C528        H532   1.084       .  S
C529        H539   1.111       .  S
C529        H540   1.109       .  S
C529        H541   1.111       .  S
C531        H542   1.111       .  S
C531        H543   1.109       .  S
C531        H544   1.107       .  S
C545        C546   1.409       .  A
C545        C550   1.394       .  A
C545        H555   1.085       .  S
C546        C547   1.528       .  A
C546        C551   1.541       .  S
C547        C552   2.933       .  S
C547        C548   1.498       .  A
C548        C549   1.411       .  A
C548        H553   1.081       .  S
C549        C550   1.396       .  A
C550        C554   1.505       .  S
C551        C556   1.409   1_655  A
C551        C560   1.394   1_655  A
C552        H568   1.131       .  S
C552        H569   1.122       .  S
C552        H570   1.131       .  S
C554        H565   1.110       .  S
C554        H566   1.111       .  S
C554        H567   1.110       .  S
C556        C561   1.503   1_455  S
C556        C557   1.429       .  A
C557        C558   1.439       .  A
C557        H562   1.079       .  S
C558        C559   1.442       .  A
C559        C563   1.495       .  S
C559        C560   1.417       .  A
C560        H564   1.072       .  S
C561        H571   1.110       .  S
C561        H572   1.109       .  S
C561        H573   1.109   1_655  S
C563        H574   1.093       .  S
C563        H575   1.101       .  S
C563        H576   1.109       .  S
C577        C578   1.402       .  A
C577        C582   1.405   1_455  A
C577        H587   1.085   1_455  S
C578        C579   1.411       .  A
C578        C583   1.476       .  S
C579        C584   1.508       .  S
C579        C580   1.399       .  A
C580        C581   1.403       .  A
C580        H585   1.084       .  S
C581        C582   1.417   1_455  A
C582        C586   1.507       .  S
C583        C588   1.402       .  A
C583        C592   1.384       .  A
C584        H600   1.110       .  S
C584        H601   1.109       .  S
C584        H602   1.111       .  S
C586        H597   1.110       .  S
C586        H598   1.111       .  S
C586        H599   1.106       .  S
C588        C593   1.504   1_455  S
C588        C589   1.410       .  A
C589        C590   1.420       .  A
C589        H594   1.081       .  S
C590        C591   1.447       .  A
C591        C595   1.508       .  S
C591        C592   1.396       .  A
C592        H596   1.088       .  S
C593        H603   1.111       .  S
C593        H604   1.110       .  S
C593        H605   1.110   1_655  S
C595        H606   1.112       .  S
C595        H607   1.092       .  S
C595        H608   1.108       .  S
C609        C610   1.404       .  A
C609        C614   1.420       .  A
C609        H619   1.083       .  S
C610        C611   1.412       .  A
C610        C615   1.511       .  S
C611        C616   1.514       .  S
C611        C612   1.396       .  A
C612        C613   1.424       .  A
C612        H617   1.071       .  S
C613        C614   1.443       .  A
C614        C618   1.510       .  S
C615        C620   1.427       .  A
C615        C624   1.402       .  A
C616        H632   1.110       .  S
C616        H633   1.102       .  S
C616        H634   1.109       .  S
C618        H629   1.111       .  S
C618        H630   1.104       .  S
C618        H631   1.101       .  S
C620        C625   1.505       .  S
C620        C621   1.420       .  A
C621        C622   1.405       .  A
C621        H626   1.083       .  S
C622        C623   1.415       .  A
C623        C627   1.504       .  S
C623        C624   1.392       .  A
C624        H628   1.083       .  S
C625        H635   1.111       .  S
C625        H636   1.110       .  S
C625        H637   1.108       .  S
C627        H638   1.108       .  S
C627        H639   1.109       .  S
C627        H640   1.110       .  S
C641        C642   1.399   1_554  A
C641        C646   1.409       .  A
C641       H1515   1.080   1_554  S
C642        C643   1.420   1_556  A
C642       C1511   1.520       .  S
C643        C648   1.509       .  S
C643        C644   1.410       .  A
C644        C645   1.420       .  A
C644        H649   1.082       .  S
C645        C646   1.446       .  A
C646        C650   1.510       .  S
C647        C652   1.425       .  A
C647        C656   1.407       .  A
C647       C1506   1.510       .  S
C648        H664   1.107       .  S
C648        H665   1.110       .  S
C648        H666   1.111       .  S
C650        H661   1.093       .  S
C650        H662   1.112       .  S
C650        H663   1.110       .  S
H651       C1505   1.081       .  S
C652       C1521   1.511       .  S
C652        C653   1.407       .  A
C653        C654   1.403       .  A
C653        H658   1.085       .  S
C654        C655   1.415       .  A
C655        C659   1.508       .  S
C655        C656   1.406       .  A
C656        H660   1.081       .  S
C657       C1516   1.513       .  S
C657        H668   1.107       .  S
C657        H669   1.111   1_556  S
C657       H1531   1.111       .  S
C659        H670   1.108       .  S
C659        H671   1.110       .  S
C659        H672   1.110       .  S
H667       C1521   1.111       .  S
C673        C674   1.399       .  A
C673        C678   1.418       .  A
C673        H683   1.084       .  S
C674        C675   1.425       .  A
C674        C679   1.527       .  S
C675        C680   1.504       .  S
C675        C676   1.422       .  A
C676        C677   1.413       .  A
C676        H681   1.082       .  S
C677        C678   1.445       .  A
C678        C682   1.507       .  S
C679        C684   1.426       .  A
C679        C688   1.406       .  A
C680        H696   1.110       .  S
C680        H697   1.102       .  S
C680        H698   1.108       .  S
C682        H693   1.111       .  S
C682        H694   1.106       .  S
C682        H695   1.100       .  S
C684        C689   1.501       .  S
C684        C685   1.415       .  A
C685        C686   1.401       .  A
C685        H690   1.082       .  S
C686        C687   1.418       .  A
C687        C691   1.497       .  S
C687        C688   1.419       .  A
C688        H692   1.084       .  S
C689        H699   1.111       .  S
C689        H700   1.107       .  S
C689        H701   1.103       .  S
C691        H702   1.105       .  S
C691        H703   1.111       .  S
C691        H704   1.109       .  S
C705        C706   1.413       .  A
C705        C710   1.420       .  A
C705        H715   1.076       .  S
C706        C707   1.420       .  A
C706        C711   1.520       .  S
C707        C712   1.509       .  S
C707        C708   1.407       .  A
C708        C709   1.409       .  A
C708        H713   1.086       .  S
C709        C710   1.415       .  A
C710        C714   1.504       .  S
C711        C716   1.415       .  A
C711        C720   1.406       .  A
C712        H728   1.105       .  S
C712        H729   1.110       .  S
C712        H730   1.111       .  S
C714        H725   1.110       .  S
C714        H726   1.108       .  S
C714        H727   1.105   1_545  S
C716        C721   1.506       .  S
C716        C717   1.411       .  A
C717        C718   1.420       .  A
C717        H722   1.081       .  S
C718        C719   1.436       .  A
C719        C723   1.510       .  S
C719        C720   1.419       .  A
C720        H724   1.082       .  S
C721        H731   1.110       .  S
C721        H732   1.109       .  S
C721        H733   1.110       .  S
C723        H734   1.110       .  S
C723        H735   1.100       .  S
C723        H736   1.098       .  S
C737        C738   1.397       .  A
C737        C742   1.415       .  A
C737        H747   1.082       .  S
C738        C739   1.405       .  A
C738        C743   1.504       .  S
C739        C744   1.509       .  S
C739        C740   1.411       .  A
C740        C741   1.431       .  A
C740        H745   1.074       .  S
C741        C742   1.445       .  A
C742        C746   1.507       .  S
C743        C748   1.416       .  A
C743        C752   1.406       .  A
C744        H760   1.110       .  S
C744        H761   1.111       .  S
C744        H762   1.111       .  S
C746        H757   1.109       .  S
C746        H758   1.111       .  S
C746        H759   1.095       .  S
C748        C753   1.509       .  S
C748        C749   1.411       .  A
C749        C750   1.408       .  A
C749        H754   1.084       .  S
C750        C751   1.416       .  A
C751        C755   1.504       .  S
C751        C752   1.414       .  A
C752        H756   1.084       .  S
C753        H763   1.111       .  S
C753        H764   1.108       .  S
C753        H765   1.109       .  S
C755        H766   1.110       .  S
C755        H767   1.109       .  S
C755        H768   1.110       .  S
C769        C770   1.391       .  A
C769        C774   1.410       .  A
C769        H779   1.085       .  S
C770        C771   1.403       .  A
C770        C775   1.480       .  S
C771        C776   1.510       .  S
C771        C772   1.398       .  A
C772        C773   1.421       .  A
C772        H777   1.074       .  S
C773        C774   1.444       .  A
C774        C778   1.509       .  S
C775        C780   1.408       .  A
C775        C784   1.398       .  A
C776        H792   1.110       .  S
C776        H793   1.111       .  S
C776        H794   1.108       .  S
C778        H789   1.103       .  S
C778        H790   1.110       .  S
C778        H791   1.107       .  S
C780        C785   1.499       .  S
C780        C781   1.405       .  A
C781        C782   1.405       .  A
C781        H786   1.084       .  S
C782        C783   1.417       .  A
C783        C787   1.507   1_565  S
C783        C784   1.399       .  A
C784        H788   1.085       .  S
C785        H795   1.110       .  S
C785        H796   1.110       .  S
C785        H797   1.103       .  S
C787        H798   1.111       .  S
C787        H799   1.108       .  S
C787        H800   1.110       .  S
C801        C802   1.402       .  A
C801        C806   1.411   1_556  A
C801        H811   1.082       .  S
C802        C803   1.414   1_556  A
C802       C1671   1.517       .  S
C803        C808   1.507   1_554  S
C803        C804   1.406       .  A
C804        C805   1.421       .  A
C804        H809   1.085       .  S
C805        C806   1.453       .  A
C806        C810   1.520       .  S
C807        C812   1.422       .  A
C807        C816   1.413       .  A
C807       C1666   1.518       .  S
C808        H825   1.107       .  S
C808        H826   1.110   1_556  S
C808       H1688   1.110       .  S
C810        H821   1.110       .  S
C810        H822   1.103       .  S
C810        H823   1.100       .  S
C812       C1681   1.509       .  S
C812        C813   1.405       .  A
C813        C814   1.412       .  A
C813        H818   1.083       .  S
C814        C815   1.420       .  A
C815        C819   1.502       .  S
C815        C816   1.411       .  A
C816        H820   1.083       .  S
C817       C1676   1.509       .  S
C817        H827   1.111       .  S
C817        H828   1.105   1_556  S
C817        H829   1.110       .  S
C819        H830   1.111       .  S
C819        H831   1.110       .  S
C819        H832   1.104       .  S
H824       C1672   1.111       .  S
C833        C834   1.390       .  A
C833        C838   1.405       .  A
C833        H843   1.085       .  S
C834        C835   1.418       .  A
C834        C839   1.512       .  S
C835        C840   1.502       .  S
C835        C836   1.422       .  A
C836        C837   1.422       .  A
C836        H841   1.080       .  S
C837        C838   1.447       .  A
C838        C842   1.504       .  S
C839        C844   1.424       .  A
C839        C848   1.406       .  A
C840        H856   1.110       .  S
C840        H857   1.107       .  S
C840        H858   1.108       .  S
C842        H853   1.111       .  S
C842        H854   1.106       .  S
C842        H855   1.096       .  S
C844        C849   1.506       .  S
C844        C845   1.409       .  A
C845        C846   1.399       .  A
C845        H850   1.079       .  S
C846        C847   1.420       .  A
C847        C851   1.501       .  S
C847        C848   1.418       .  A
C848        H852   1.083       .  S
C849        H859   1.110       .  S
C849        H860   1.106       .  S
C849        H861   1.110       .  S
C851        H862   1.103       .  S
C851        H863   1.106       .  S
C851        H864   1.109       .  S
C865       C1605   1.608       .  S
C865       C1637   1.586       .  S
C865       C1669   1.592       .  S
C865       C1701   1.611       .  S
N866        C870   1.378       .  A
N866        C867   1.379       .  A
N866       C1710   1.463       .  S
C867        C868   1.383       .  A
C867       C1573   1.505   1_565  S
C868        C869   1.351       .  A
C868        H871   1.082   1_565  S
C869        C870   1.383       .  A
C869        H872   1.082       .  S
C870       C1678   1.514       .  S
N873        C877   1.374       .  A
N873        C874   1.378       .  A
N873       C1550   1.461       .  S
C874        C875   1.384       .  A
C874       C1486   1.499       .  S
C875        C876   1.356       .  A
C875        H878   1.082       .  S
C876        C877   1.377       .  A
C876        H879   1.083       .  S
C877       C1518   1.485       .  S
C880       C1422   1.618       .  S
C880       C1454   1.580       .  S
C880       C1509   1.595       .  S
C880       C1541   1.598       .  S
C881       C1285   1.615       .  S
C881       C1317   1.596       .  S
C881       C1349   1.563       .  S
C881       C1381   1.617       .  S
N882        C886   1.362       .  A
N882        C883   1.381       .  A
N882       C1390   1.461       .  S
C883        C884   1.387       .  A
C883       C1253   1.513       .  S
C884        C885   1.361       .  A
C884        H887   1.083       .  S
C885        C886   1.376       .  A
C885        H888   1.083       .  S
C886       C1358   1.480   1_565  S
N889        C893   1.345       .  A
N889        N890   1.322       .  A
N889       Cu897   2.090       .  S
N890        C891   1.348   1_455  A
N890       Cu896   2.072   1_455  S
C891        C892   1.384   1_655  A
C891        H894   1.083       .  S
C892        C893   1.387       .  A
C892       C1445   1.484       .  S
C893        H895   1.082       .  S
Cu896       N899   2.071       .  S
Cu897       N907   2.090       .  S
Cu898       N900   2.066   1_455  S
Cu898       N906   2.066       .  S
N899        C903   1.341       .  A
N899        N900   1.322       .  A
N900        C901   1.347       .  A
C901        C902   1.383       .  A
C901        H904   1.082       .  S
C902        C903   1.383       .  A
C902       C1646   1.479   1_545  S
C903        H905   1.082       .  S
N906        C910   1.342       .  A
N906        N907   1.322       .  A
N907        C908   1.347       .  A
C908        C909   1.388       .  A
C908        H911   1.081       .  S
C909        C910   1.383       .  A
C909       C1326   1.482       .  S
C910        H912   1.082       .  S
C913       C1166   1.598       .  S
C913       C1189   1.584       .  S
C913       C1221   1.579       .  S
C913       C1477   1.609       .  S
N914        C918   1.359       .  A
N914        C915   1.366       .  A
N914       C1230   1.442       .  S
C915        C916   1.381       .  A
C915       C1413   1.493       .  S
C916        C917   1.373       .  A
C916        H919   1.082       .  S
C917        C918   1.380       .  A
C917        H920   1.082       .  S
C918       C1198   1.485       .  S
C921       C1070   1.587       .  S
C921       C1102   1.591       .  S
C921       C1125   1.605       .  S
C921       C1582   1.588       .  S
N922        C926   1.377       .  A
N922        C923   1.377       .  A
N922       C1134   1.461       .  S
C923        C924   1.381       .  A
C923       C1614   1.497       .  S
C924        C925   1.361       .  A
C924        H927   1.083       .  S
C925        C926   1.379       .  A
C926       C1093   1.496       .  S
C929        C965   1.569       .  S
C929        C997   1.611   1_455  S
C929       C1038   1.582   1_455  S
C929       C1262   1.595       .  S
N930        C934   1.372       .  A
N930        C931   1.374       .  A
N930       C1006   1.456       .  S
C931        C932   1.372       .  A
C931       C1294   1.490       .  S
C932        C933   1.352       .  A
C932        H935   1.069       .  S
C933        C934   1.381       .  A
C933        H936   1.079       .  S
C934       C1029   1.491       .  S
N937        C941   1.343       .  A
N937        N938   1.323       .  A
N937       Cu945   2.064       .  S
N938        C939   1.347       .  A
N938       Cu944   2.087       .  S
C939        C940   1.386       .  A
C939        H942   1.082       .  S
C940        C941   1.381       .  A
C940       C1061   1.478       .  S
C941        H943   1.081       .  S
Cu944       N947   2.088       .  S
Cu945       N955   2.064       .  S
Cu946       N948   2.080   1_455  S
Cu946       N954   2.079       .  S
N947        C951   1.345   1_455  A
N947        N948   1.320   1_455  A
N948        C949   1.346       .  A
C949        C950   1.393       .  A
C949        H952   1.076       .  S
C950        C951   1.393       .  A
C950       C1157   1.503       .  S
C951        H953   1.082   1_655  S
N954        C958   1.345       .  A
N954        N955   1.322       .  A
N955        C956   1.345       .  A
C956        C957   1.380       .  A
C956        H959   1.082       .  S
C957        C958   1.382       .  A
C957        C974   1.471       .  S
C958        H960   1.081   1_455  S
C961        C962   1.395       .  A
C961        C966   1.405       .  A
C961        H971   1.085       .  S
C962        C963   1.404   1_455  A
C962        C967   1.479       .  S
C963        C968   1.506       .  S
C963        C964   1.402       .  A
C964        C965   1.421   1_655  A
C964        H969   1.083       .  S
C965        C966   1.438       .  A
C966        C970   1.514       .  S
C967        C972   1.412       .  A
C967        C976   1.401       .  A
C968        H984   1.110       .  S
C968        H985   1.110       .  S
C968        H986   1.111       .  S
C970        H981   1.110       .  S
C970        H982   1.109       .  S
C970        H983   1.098       .  S
C972        C977   1.505       .  S
C972        C973   1.401       .  A
C973        C974   1.400       .  A
C973        H978   1.084       .  S
C974        C975   1.416       .  A
C975        C979   1.507       .  S
C975        C976   1.404       .  A
C976        H980   1.084       .  S
C977        H987   1.110       .  S
C977        H988   1.110       .  S
C977        H989   1.107       .  S
C979        H990   1.111       .  S
C979        H991   1.107       .  S
C979        H992   1.110       .  S
C993        C994   1.394       .  A
C993        C998   1.418       .  A
C993       H1003   1.083       .  S
C994        C995   1.412       .  A
C994        C999   1.519       .  S
C995       C1000   1.506       .  S
C995        C996   1.417       .  A
C996        C997   1.425       .  A
C996       H1001   1.077   1_655  S
C997        C998   1.456       .  A
C998       C1002   1.512       .  S
C999       C1004   1.421   1_556  A
C1000      H1016   1.109       .  S
C1000      H1017   1.104   1_556  S
C1000      H1018   1.111   1_655  S
C1002      H1013   1.106       .  S
C1002      H1014   1.111       .  S
C1002      H1015   1.104       .  S
C1004      C1009   1.506   1_554  S
C1004      C1005   1.413       .  A
C1005      H1010   1.084       .  S
C1006      C1007   1.417       .  A
C1007      C1011   1.501       .  S
C1007      C1008   1.417       .  A
C1008      H1012   1.084       .  S
C1009      H1019   1.110       .  S
C1009      H1020   1.108       .  S
C1009      H1021   1.109       .  S
C1011      H1022   1.106       .  S
C1011      H1023   1.109       .  S
C1011      H1024   1.111       .  S
C1025      C1026   1.785       .  A
C1025      C1030   1.771       .  A
C1025      H1035   1.081       .  S
C1026      C1027   1.819       .  A
C1026      C1031   1.491       .  S
C1027      C1032   1.478       .  S
C1027      C1028   1.782       .  A
C1028      C1029   1.775       .  A
C1028      H1033   1.077       .  S
C1029      C1030   1.815       .  A
C1030      C1034   1.491       .  S
C1031      C1036   1.410       .  A
C1031      C1040   1.395       .  A
C1032      H1048   1.103       .  S
C1032      H1049   1.103       .  S
C1032      H1050   1.109       .  S
C1034      H1045   1.109       .  S
C1034      H1046   1.109       .  S
C1034      H1047   1.099       .  S
C1036      C1041   1.508       .  S
C1036      C1037   1.403       .  A
C1037      C1038   1.423       .  A
C1037      H1042   1.084       .  S
C1038      C1039   1.447       .  A
C1039      C1043   1.514       .  S
C1039      C1040   1.400       .  A
C1040      H1044   1.081       .  S
C1041      H1051   1.111   1_655  S
C1041      H1052   1.110       .  S
C1041      H1053   1.106       .  S
C1043      H1054   1.110       .  S
C1043      H1055   1.099   1_655  S
C1043      H1056   1.113   1_655  S
C1057      C1058   1.399       .  A
C1057      C1062   1.404       .  A
C1057      H1067   1.084       .  S
C1058      C1059   1.412       .  A
C1058      C1063   1.476       .  S
C1059      C1064   1.508       .  S
C1059      C1060   1.402       .  A
C1060      C1061   1.403       .  A
C1060      H1065   1.083       .  S
C1061      C1062   1.417       .  A
C1062      C1066   1.507       .  S
C1063      C1068   1.401       .  A
C1063      C1072   1.395       .  A
C1064      H1080   1.110       .  S
C1064      H1081   1.110       .  S
C1064      H1082   1.110       .  S
C1066      H1077   1.108       .  S
C1066      H1078   1.111       .  S
C1066      H1079   1.110       .  S
C1068      C1073   1.507       .  S
C1068      C1069   1.398       .  A
C1069      C1070   1.425       .  A
C1069      H1074   1.078       .  S
C1070      C1071   1.439       .  A
C1071      C1075   1.510       .  S
C1071      C1072   1.406       .  A
C1072      H1076   1.085       .  S
C1073      H1083   1.111       .  S
C1073      H1084   1.110       .  S
C1073      H1085   1.110       .  S
C1075      H1086   1.107       .  S
C1075      H1087   1.094       .  S
C1075      H1088   1.111       .  S
C1089      C1090   1.399       .  A
C1089      C1094   1.401       .  A
C1089      H1099   1.086       .  S
C1090      C1091   1.415       .  A
C1090      C1095   1.497       .  S
C1091      C1096   1.505       .  S
C1092      C1093   1.410       .  A
C1092      H1097   1.084       .  S
C1094      C1098   1.510       .  S
C1095      C1100   1.403       .  A
C1095      C1104   1.401       .  A
C1096      H1112   1.110       .  S
C1096      H1113   1.109       .  S
C1098      H1109   1.110       .  S
C1098      H1110   1.111       .  S
C1098      H1111   1.105       .  S
C1100      C1105   1.503       .  S
C1100      C1101   1.403       .  A
C1101      C1102   1.425       .  A
C1101      H1106   1.074       .  S
C1102      C1103   1.441       .  A
C1103      C1107   1.509       .  S
C1103      C1104   1.417       .  A
C1104      H1108   1.084       .  S
C1105      H1115   1.110       .  S
C1105      H1116   1.105       .  S
C1105      H1117   1.110       .  S
C1107      H1118   1.104       .  S
C1107      H1119   1.107       .  S
C1107      H1120   1.111       .  S
C1121      C1122   1.403       .  A
C1121      C1126   1.424       .  A
C1121      H1131   1.077       .  S
C1122      C1123   1.410       .  A
C1122      C1127   1.516       .  S
C1123      C1128   1.510       .  S
C1123      C1124   1.409       .  A
C1124      C1125   1.427       .  A
C1124      H1129   1.076       .  S
C1125      C1126   1.435       .  A
C1126      C1130   1.504       .  S
C1127      C1132   1.421       .  A
C1127      C1136   1.403       .  A
C1128      H1144   1.105       .  S
C1128      H1145   1.110       .  S
C1128      H1146   1.111       .  S
C1130      H1141   1.106       .  S
C1130      H1142   1.107       .  S
C1130      H1143   1.107       .  S
C1132      C1137   1.505       .  S
C1132      C1133   1.421       .  A
C1133      C1134   1.408       .  A
C1133      H1138   1.083       .  S
C1134      C1135   1.419       .  A
C1135      C1139   1.500       .  S
C1135      C1136   1.408       .  A
C1136      H1140   1.081       .  S
C1137      H1147   1.110       .  S
C1137      H1148   1.106       .  S
C1137      H1149   1.110       .  S
C1139      H1150   1.111       .  S
C1139      H1151   1.109       .  S
C1139      H1152   1.104       .  S
C1153      C1154   1.399       .  A
C1153      C1158   1.409   1_565  A
C1153      H1163   1.084       .  S
C1154      C1155   1.407       .  A
C1154      C1159   1.487       .  S
C1155      C1160   1.506       .  S
C1155      C1156   1.405       .  A
C1156      C1157   1.410   1_565  A
C1156      H1161   1.082       .  S
C1157      C1158   1.426       .  A
C1158      C1162   1.506       .  S
C1159      C1164   1.402       .  A
C1159      C1168   1.393       .  A
C1160      H1176   1.109       .  S
C1160      H1177   1.110       .  S
C1160      H1178   1.110       .  S
C1162      H1173   1.110       .  S
C1162      H1174   1.111       .  S
C1162      H1175   1.108       .  S
C1164      C1169   1.509       .  S
C1164      C1165   1.403       .  A
C1165      C1166   1.426       .  A
C1165      H1170   1.071       .  S
C1166      C1167   1.445       .  A
C1167      C1171   1.511       .  S
C1167      C1168   1.408       .  A
C1168      H1172   1.083       .  S
C1169      H1179   1.111       .  S
C1169      H1180   1.110       .  S
C1169      H1181   1.110       .  S
C1171      H1182   1.112       .  S
C1171      H1183   1.096       .  S
C1171      H1184   1.108       .  S
C1185      C1186   1.395       .  A
C1185      C1190   1.402       .  A
C1185      H1195   1.086       .  S
C1186      C1187   1.409       .  A
C1186      C1191   1.494       .  S
C1187      C1192   1.504       .  S
C1187      C1188   1.414       .  A
C1188      C1189   1.423       .  A
C1188      H1193   1.083       .  S
C1189      C1190   1.442       .  A
C1190      C1194   1.513       .  S
C1191      C1196   1.413       .  A
C1191      C1200   1.403       .  A
C1192      H1208   1.109       .  S
C1192      H1209   1.111       .  S
C1192      H1210   1.111       .  S
C1194      H1205   1.111       .  S
C1194      H1206   1.110       .  S
C1194      H1207   1.095       .  S
C1196      C1201   1.504       .  S
C1197      C1198   1.402       .  A
C1197      H1202   1.076       .  S
C1199      C1200   1.408       .  A
C1200      H1204   1.084       .  S
C1201      H1211   1.110       .  S
C1201      H1212   1.109       .  S
C1201      H1213   1.110       .  S
C1203      H1215   1.108       .  S
C1203      H1216   1.110       .  S
C1217      C1218   1.394       .  A
C1217      C1222   1.403       .  A
C1217      H1227   1.085       .  S
C1218      C1219   1.412       .  A
C1218      C1223   1.501       .  S
C1219      C1224   1.500       .  S
C1219      C1220   1.413       .  A
C1220      C1221   1.421       .  A
C1220      H1225   1.079       .  S
C1221      C1222   1.443       .  A
C1222      C1226   1.511       .  S
C1223      C1228   1.418       .  A
C1223      C1232   1.410       .  A
C1224      H1240   1.110       .  S
C1224      H1241   1.105       .  S
C1224      H1242   1.101       .  S
C1226      H1237   1.111       .  S
C1226      H1238   1.111       .  S
C1226      H1239   1.095       .  S
C1228      C1233   1.508       .  S
C1228      C1229   1.403       .  A
C1229      C1230   1.398       .  A
C1229      H1234   1.084       .  S
C1230      C1231   1.410       .  A
C1231      C1235   1.505       .  S
C1231      C1232   1.413       .  A
C1232      H1236   1.084       .  S
C1233      H1243   1.111       .  S
C1233      H1244   1.108       .  S
C1233      H1245   1.110       .  S
C1235      H1246   1.108       .  S
C1235      H1247   1.102       .  S
C1235      H1248   1.110       .  S
C1249      C1250   1.411       .  A
C1249      C1254   1.422       .  A
C1249      H1259   1.082       .  S
C1250      C1251   1.424       .  A
C1250      C1255   1.525       .  S
C1251      C1256   1.515       .  S
C1251      C1252   1.412       .  A
C1252      C1253   1.411       .  A
C1252      H1257   1.084       .  S
C1253      C1254   1.423       .  A
C1254      C1258   1.505       .  S
C1255      C1260   1.423       .  A
C1255      C1264   1.389       .  A
C1256      H1272   1.103       .  S
C1256      H1273   1.109       .  S
C1256      H1274   1.108       .  S
C1258      H1269   1.110       .  S
C1258      H1270   1.110       .  S
C1258      H1271   1.102       .  S
C1260      C1265   1.504       .  S
C1260      C1261   1.430       .  A
C1261      C1262   1.423       .  A
C1261      H1266   1.080       .  S
C1262      C1263   1.440       .  A
C1263      C1267   1.507       .  S
C1263      C1264   1.402       .  A
C1264      H1268   1.079       .  S
C1265      H1275   1.111       .  S
C1265      H1276   1.107       .  S
C1265      H1277   1.111       .  S
C1267      H1278   1.085       .  S
C1267      H1279   1.098       .  S
C1267      H1280   1.109       .  S
C1281      C1282   1.396       .  A
C1281      C1286   1.414       .  A
C1281      H1291   1.086       .  S
C1282      C1283   1.403       .  A
C1282      C1287   1.501       .  S
C1283      C1288   1.507       .  S
C1283      C1284   1.410       .  A
C1284      C1285   1.433       .  A
C1284      H1289   1.077       .  S
C1285      C1286   1.444       .  A
C1286      C1290   1.505       .  S
C1287      C1292   1.414       .  A
C1287      C1296   1.401       .  A
C1288      H1304   1.110       .  S
C1288      H1305   1.108       .  S
C1288      H1306   1.111       .  S
C1290      H1301   1.108       .  S
C1290      H1302   1.107       .  S
C1290      H1303   1.102       .  S
C1292      C1297   1.505       .  S
C1292      C1293   1.413       .  A
C1293      C1294   1.406       .  A
C1293      H1298   1.085       .  S
C1294      C1295   1.426       .  A
C1295      C1299   1.509       .  S
C1295      C1296   1.410       .  A
C1296      H1300   1.084       .  S
C1297      H1307   1.107       .  S
C1297      H1308   1.110       .  S
C1297      H1309   1.105       .  S
C1299      H1310   1.110       .  S
C1299      H1311   1.107       .  S
C1299      H1312   1.110       .  S
C1313      C1314   1.391       .  A
C1313      C1318   1.402       .  A
C1313      H1323   1.085       .  S
C1314      C1315   1.403       .  A
C1314      C1319   1.477       .  S
C1315      C1320   1.505       .  S
C1315      C1316   1.405       .  A
C1316      C1317   1.417       .  A
C1316      H1321   1.077       .  S
C1317      C1318   1.437       .  A
C1318      C1322   1.514       .  S
C1319      C1324   1.411       .  A
C1319      C1328   1.401       .  A
C1320      H1336   1.111       .  S
C1320      H1337   1.106       .  S
C1320      H1338   1.108       .  S
C1322      H1333   1.110       .  S
C1322      H1334   1.111       .  S
C1322      H1335   1.088       .  S
C1324      C1329   1.509       .  S
C1324      C1325   1.403       .  A
C1325      C1326   1.405       .  A
C1325      H1330   1.083       .  S
C1326      C1327   1.418       .  A
C1327      C1331   1.508       .  S
C1327      C1328   1.403       .  A
C1328      H1332   1.085       .  S
C1329      H1339   1.110       .  S
C1329      H1340   1.110       .  S
C1329      H1341   1.107       .  S
C1331      H1342   1.110       .  S
C1331      H1343   1.107       .  S
C1331      H1344   1.110       .  S
C1345      C1346   1.396       .  A
C1345      H1355   1.082       .  S
C1346      C1347   1.413       .  A
C1346      C1351   1.483       .  S
C1347      C1352   1.508       .  S
C1348      C1349   1.413       .  A
C1348      H1353   1.082       .  S
C1349      C1350   1.439       .  A
C1350      C1354   1.509       .  S
C1351      C1356   1.412       .  A
C1351      C1360   1.404       .  A
C1352      H1368   1.110       .  S
C1352      H1369   1.108       .  S
C1352      H1370   1.110       .  S
C1354      H1365   1.110       .  S
C1354      H1366   1.111       .  S
C1354      H1367   1.102       .  S
C1356      C1361   1.506       .  S
C1356      C1357   1.401       .  A
C1357      C1358   1.402       .  A
C1357      H1362   1.085   1_545  S
C1358      C1359   1.408       .  A
C1359      C1363   1.501       .  S
C1359      C1360   1.409       .  A
C1360      H1364   1.084       .  S
C1361      H1371   1.111       .  S
C1361      H1372   1.110       .  S
C1363      H1374   1.109       .  S
C1363      H1375   1.108       .  S
C1363      H1376   1.107       .  S
C1377      C1378   1.394       .  A
C1377      C1382   1.413       .  A
C1377      H1387   1.086       .  S
C1378      C1379   1.416       .  A
C1378      C1383   1.515       .  S
C1379      C1384   1.500       .  S
C1379      C1380   1.419       .  A
C1380      C1381   1.422       .  A
C1380      H1385   1.080       .  S
C1381      C1382   1.444       .  A
C1382      C1386   1.501       .  S
C1383      C1388   1.418       .  A
C1383      C1392   1.406   1_545  A
C1384      H1400   1.109       .  S
C1384      H1401   1.107       .  S
C1384      H1402   1.108       .  S
C1386      H1397   1.112       .  S
C1386      H1398   1.087       .  S
C1386      H1399   1.109       .  S
C1388      C1393   1.507       .  S
C1388      C1389   1.417   1_545  A
C1389      C1390   1.410       .  A
C1389      H1394   1.083   1_565  S
C1390      C1391   1.421       .  A
C1391      C1395   1.503       .  S
C1391      C1392   1.417       .  A
C1392      H1396   1.084       .  S
C1393      H1403   1.111       .  S
C1393      H1404   1.110       .  S
C1393      H1405   1.111       .  S
C1395      H1406   1.111       .  S
C1395      H1407   1.110       .  S
C1395      H1408   1.107       .  S
C1409      C1410   1.408       .  A
C1409      C1414   1.392       .  A
C1409      H1419   1.085       .  S
C1410      C1411   1.524       .  A
C1410      C1415   1.535       .  S
C1411      C1416   2.938       .  S
C1411      C1412   1.496       .  A
C1412      C1413   1.408       .  A
C1412      H1417   1.081       .  S
C1413      C1414   1.395       .  A
C1414      C1418   1.505       .  S
C1415      C1420   1.409   1_655  A
C1415      C1424   1.392   1_655  A
C1416      H1432   1.129       .  S
C1416      H1433   1.120       .  S
C1416      H1434   1.129       .  S
C1418      H1429   1.110       .  S
C1418      H1430   1.111       .  S
C1418      H1431   1.109       .  S
C1420      C1425   1.505   1_455  S
C1420      C1421   1.427       .  A
C1421      C1422   1.439       .  A
C1421      H1426   1.080       .  S
C1422      C1423   1.441       .  A
C1423      C1427   1.496       .  S
C1423      C1424   1.414       .  A
C1424      H1428   1.070       .  S
C1425      H1435   1.110       .  S
C1425      H1436   1.109       .  S
C1425      H1437   1.110   1_655  S
C1427      H1438   1.094       .  S
C1427      H1439   1.099       .  S
C1427      H1440   1.108       .  S
C1441      C1442   1.406   1_655  A
C1441      C1446   1.409       .  A
C1441      H1451   1.084       .  S
C1442      C1443   1.413       .  A
C1442      C1447   1.485       .  S
C1443      C1448   1.508       .  S
C1443      C1444   1.402       .  A
C1444      C1445   1.402       .  A
C1444      H1449   1.084       .  S
C1445      C1446   1.418   1_455  A
C1446      C1450   1.508       .  S
C1447      C1452   1.405       .  A
C1447      C1456   1.385       .  A
C1448      H1464   1.109       .  S
C1448      H1465   1.107       .  S
C1448      H1466   1.111       .  S
C1450      H1461   1.110       .  S
C1450      H1462   1.110       .  S
C1450      H1463   1.106       .  S
C1452      C1457   1.506   1_455  S
C1452      C1453   1.414       .  A
C1453      C1454   1.420       .  A
C1453      H1458   1.081       .  S
C1454      C1455   1.447       .  A
C1455      C1459   1.508       .  S
C1455      C1456   1.397       .  A
C1456      H1460   1.085       .  S
C1457      H1467   1.111       .  S
C1457      H1468   1.110       .  S
C1457      H1469   1.107       .  S
C1459      H1470   1.111       .  S
C1459      H1471   1.092       .  S
C1459      H1472   1.107       .  S
C1473      C1474   1.408       .  A
C1473      C1478   1.424       .  A
C1473      H1483   1.083       .  S
C1474      C1475   1.414       .  A
C1474      C1479   1.523       .  S
C1475      C1480   1.512       .  S
C1475      C1476   1.402       .  A
C1476      C1477   1.425       .  A
C1476      H1481   1.072       .  S
C1477      C1478   1.442       .  A
C1478      C1482   1.510       .  S
C1479      C1484   1.428       .  A
C1479      C1488   1.404       .  A
C1480      H1496   1.110       .  S
C1480      H1497   1.104       .  S
C1480      H1498   1.110       .  S
C1482      H1493   1.111       .  S
C1482      H1494   1.105       .  S
C1482      H1495   1.101       .  S
C1484      C1489   1.505       .  S
C1484      C1485   1.423       .  A
C1485      C1486   1.407       .  A
C1485      H1490   1.084       .  S
C1486      C1487   1.417       .  A
C1487      C1491   1.504       .  S
C1487      C1488   1.398       .  A
C1488      H1492   1.083       .  S
C1489      H1499   1.110       .  S
C1489      H1500   1.110       .  S
C1489      H1501   1.108       .  S
C1491      H1502   1.108       .  S
C1491      H1503   1.106       .  S
C1491      H1504   1.110       .  S
C1505      C1506   1.398       .  A
C1505      C1510   1.411       .  A
C1506      C1507   1.415       .  A
C1507      C1512   1.511       .  S
C1507      C1508   1.406       .  A
C1508      C1509   1.421       .  A
C1508      H1513   1.081       .  S
C1509      C1510   1.447       .  A
C1510      C1514   1.508       .  S
C1511      C1516   1.429       .  A
C1511      C1520   1.410       .  A
C1512      H1528   1.106       .  S
C1512      H1529   1.111       .  S
C1512      H1530   1.111       .  S
C1514      H1525   1.094       .  S
C1514      H1526   1.112       .  S
C1514      H1527   1.110       .  S
C1516      C1517   1.407       .  A
C1517      C1518   1.401       .  A
C1517      H1522   1.085       .  S
C1518      C1519   1.415       .  A
C1519      C1523   1.508       .  S
C1519      C1520   1.410       .  A
C1520      H1524   1.080       .  S
C1521      H1532   1.107       .  S
C1521      H1533   1.111       .  S
C1523      H1534   1.108       .  S
C1523      H1535   1.110       .  S
C1523      H1536   1.110       .  S
C1537      C1538   1.400       .  A
C1537      C1542   1.416       .  A
C1537      H1547   1.083       .  S
C1538      C1539   1.427       .  A
C1538      C1543   1.529       .  S
C1539      C1544   1.505       .  S
C1539      C1540   1.423       .  A
C1540      C1541   1.414       .  A
C1540      H1545   1.084       .  S
C1541      C1542   1.443       .  A
C1542      C1546   1.508       .  S
C1543      C1548   1.428       .  A
C1543      C1552   1.409       .  A
C1544      H1560   1.110       .  S
C1544      H1561   1.101       .  S
C1544      H1562   1.107       .  S
C1546      H1557   1.110       .  S
C1546      H1558   1.106       .  S
C1546      H1559   1.100       .  S
C1548      C1553   1.503       .  S
C1548      C1549   1.414       .  A
C1549      C1550   1.401       .  A
C1549      H1554   1.082       .  S
C1550      C1551   1.420       .  A
C1551      C1555   1.498       .  S
C1551      C1552   1.419       .  A
C1552      H1556   1.084       .  S
C1553      H1563   1.111       .  S
C1553      H1564   1.107       .  S
C1553      H1565   1.106       .  S
C1555      H1566   1.110       .  S
C1555      H1567   1.102       .  S
C1555      H1568   1.110       .  S
C1569      C1570   1.415       .  A
C1569      C1574   1.421       .  A
C1569      H1579   1.081       .  S
C1570      C1571   1.422       .  A
C1570      C1575   1.520       .  S
C1571      C1576   1.510       .  S
C1571      C1572   1.408       .  A
C1572      C1573   1.410       .  A
C1572      H1577   1.085       .  S
C1573      C1574   1.412       .  A
C1574      C1578   1.503       .  S
C1575      C1580   1.416       .  A
C1575      C1584   1.406       .  A
C1576      H1592   1.105       .  S
C1576      H1593   1.110       .  S
C1576      H1594   1.111       .  S
C1578      H1589   1.108       .  S
C1578      H1590   1.109   1_545  S
C1578      H1591   1.110   1_545  S
C1580      C1585   1.507       .  S
C1580      C1581   1.412       .  A
C1581      C1582   1.422       .  A
C1581      H1586   1.082       .  S
C1582      C1583   1.433       .  A
C1583      C1587   1.507       .  S
C1583      C1584   1.419       .  A
C1584      H1588   1.082       .  S
C1585      H1595   1.111       .  S
C1585      H1596   1.108       .  S
C1585      H1597   1.110       .  S
C1587      H1598   1.110       .  S
C1587      H1599   1.102       .  S
C1587      H1600   1.100       .  S
C1601      C1602   1.401       .  A
C1601      C1606   1.420       .  A
C1601      H1611   1.081       .  S
C1602      C1603   1.405       .  A
C1602      C1607   1.511       .  S
C1603      C1608   1.510       .  S
C1603      C1604   1.411       .  A
C1604      C1605   1.433       .  A
C1604      H1609   1.075       .  S
C1605      C1606   1.444       .  A
C1606      C1610   1.507       .  S
C1607      C1612   1.418       .  A
C1607      C1616   1.407       .  A
C1608      H1624   1.110       .  S
C1608      H1625   1.110       .  S
C1608      H1626   1.111       .  S
C1610      H1621   1.108       .  S
C1610      H1622   1.111       .  S
C1610      H1623   1.095       .  S
C1612      C1617   1.509       .  S
C1612      C1613   1.413       .  A
C1613      C1614   1.408       .  A
C1613      H1618   1.083       .  S
C1614      C1615   1.418       .  A
C1615      C1619   1.504       .  S
C1615      C1616   1.417       .  A
C1616      H1620   1.084       .  S
C1617      H1627   1.111       .  S
C1617      H1628   1.108       .  S
C1617      H1629   1.108       .  S
C1619      H1630   1.110       .  S
C1619      H1631   1.110       .  S
C1619      H1632   1.110       .  S
C1633      C1634   1.396       .  A
C1633      C1638   1.414       .  A
C1633      H1643   1.084       .  S
C1634      C1635   1.401       .  A
C1634      C1639   1.482       .  S
C1635      C1640   1.511       .  S
C1635      C1636   1.396       .  A
C1636      C1637   1.423       .  A
C1636      H1641   1.074       .  S
C1637      C1638   1.442       .  A
C1638      C1642   1.509       .  S
C1639      C1644   1.409       .  A
C1639      C1648   1.399       .  A
C1640      H1656   1.109       .  S
C1640      H1657   1.110       .  S
C1640      H1658   1.106       .  S
C1642      H1653   1.105       .  S
C1642      H1654   1.111       .  S
C1642      H1655   1.106       .  S
C1644      C1649   1.499       .  S
C1644      C1645   1.405       .  A
C1645      C1646   1.404       .  A
C1645      H1650   1.084       .  S
C1646      C1647   1.418   1_565  A
C1647      C1651   1.508       .  S
C1647      C1648   1.400   1_545  A
C1648      H1652   1.085       .  S
C1649      H1659   1.109       .  S
C1649      H1660   1.109       .  S
C1649      H1661   1.103       .  S
C1651      H1662   1.111       .  S
C1651      H1663   1.107       .  S
C1651      H1664   1.110       .  S
C1665      C1666   1.403       .  A
C1665      C1670   1.414       .  A
C1665      H1675   1.082       .  S
C1666      C1667   1.413       .  A
C1667      C1672   1.506       .  S
C1667      C1668   1.405       .  A
C1668      C1669   1.422       .  A
C1668      H1673   1.085       .  S
C1669      C1670   1.450       .  A
C1670      C1674   1.516       .  S
C1671      C1676   1.420       .  A
C1671      C1680   1.413       .  A
C1672      H1689   1.106       .  S
C1672      H1690   1.110       .  S
C1674      H1685   1.111       .  S
C1674      H1686   1.103       .  S
C1674      H1687   1.101       .  S
C1676      C1677   1.404       .  A
C1677      C1678   1.413       .  A
C1677      H1682   1.084       .  S
C1678      C1679   1.421       .  A
C1679      C1683   1.500       .  S
C1679      C1680   1.411       .  A
C1680      H1684   1.084       .  S
C1681      H1691   1.111       .  S
C1681      H1692   1.105       .  S
C1681      H1693   1.110       .  S
C1683      H1694   1.111       .  S
C1683      H1695   1.109       .  S
C1683      H1696   1.104       .  S
C1697      C1698   1.393       .  A
C1697      C1702   1.408       .  A
C1697      H1707   1.085       .  S
C1698      C1699   1.420       .  A
C1698      C1703   1.517       .  S
C1699      C1704   1.503       .  S
C1699      C1700   1.424       .  A
C1700      C1701   1.420       .  A
C1700      H1705   1.081       .  S
C1701      C1702   1.448       .  A
C1702      C1706   1.505       .  S
C1703      C1708   1.423       .  A
C1703      C1712   1.407       .  A
C1704      H1720   1.110       .  S
C1704      H1721   1.106       .  S
C1704      H1722   1.108       .  S
C1706      H1717   1.111       .  S
C1706      H1718   1.106       .  S
C1706      H1719   1.097       .  S
C1708      C1713   1.505       .  S
C1708      C1709   1.412       .  A
C1709      C1710   1.402       .  A
C1709      H1714   1.080       .  S
C1710      C1711   1.421       .  A
C1711      C1715   1.502       .  S
C1711      C1712   1.418       .  A
C1712      H1716   1.083       .  S
C1713      H1723   1.110       .  S
C1713      H1724   1.107       .  S
C1713      H1725   1.111       .  S
C1715      H1726   1.107       .  S
C1715      H1727   1.106       .  S
C1715      H1728   1.110       .  S
