geometry optimzed in LAMMPS
_audit_creation_date              2020-11-30 
_audit_creation_method            'lammps2cif' 
_symmetry_space_group_name_H-M    'P1' 
_symmetry_Int_Tables_number       1 
_symmetry_cell_setting            triclinic 
loop_ 
_symmetry_equiv_pos_as_xyz 
  x,y,z 
_cell_length_a                    57.47913777 
_cell_length_b                    57.41483347600557 
_cell_length_c                    37.819762177586675 
_cell_angle_alpha                 90.0324968809687 
_cell_angle_beta                  90.03758808837263 
_cell_angle_gamma                 90.0649289890417 
loop_ 
_atom_site_label 
_atom_site_type_symbol 
_atom_site_fract_x 
_atom_site_fract_y 
_atom_site_fract_z 
_atom_site_charge 
C1          C  0.35214339  0.08643753  0.63484856     0.05000
C2          C  0.35047682  0.07028949  0.60716709    -0.11100
C3          C  0.33276260  0.05347532  0.60702760     0.02500
C4          C  0.31637164  0.05316037  0.63455554    -0.09600
C5          C  0.31801352  0.06904866  0.66281035     0.05000
C6          C  0.33629697  0.08537013  0.66296887    -0.09100
H7          H  0.36278832  0.07100745  0.58548535     0.10600
H8          H  0.30225774  0.04064873  0.63372036     0.08100
H9          H  0.33794424  0.09766481  0.68457483     0.08000
O10         O  0.52690261  0.22120631  0.67516690    -0.71000
O11         O  0.48056055  0.27260976  0.66274750    -0.72000
O12         O  0.47782802  0.22336388  0.66592565    -0.60600
O13         O  0.52968589  0.27047276  0.67164848    -0.69100
O14         O  0.53373717  0.26845937  0.61358237    -0.68600
O15         O  0.48232080  0.22141284  0.60786085    -0.59900
O16         O  0.48470510  0.27070669  0.60466104    -0.72400
O17         O  0.53121724  0.21936732  0.61711832    -0.71100
Cu18       Cu  0.50357798  0.24699772  0.67090035     1.04600
Cu19       Cu  0.50815177  0.24493553  0.60882740     1.04300
C20         C  0.53656636  0.21217044  0.64803885     0.95200
C21         C  0.47505669  0.27971059  0.63184742     0.94300
C22         C  0.47188959  0.21486926  0.63596705     0.86400
C23         C  0.54005484  0.27686826  0.64335796     0.92700
C24         C  0.65871906  0.08741473  0.66335988     0.05000
C25         C  0.67774810  0.08810965  0.68637660    -0.11100
C26         C  0.69575021  0.07178481  0.68331989     0.02500
C27         C  0.69488628  0.05518595  0.65596094    -0.09600
C28         C  0.67559862  0.05393774  0.63297511     0.05000
C29         C  0.65732631  0.06995516  0.63755525    -0.09100
H30         H  0.67826528  0.10116532  0.70707340     0.10600
H31         H  0.70941557  0.04342695  0.65249241     0.08100
H32         H  0.64208579  0.06918760  0.62074033     0.08000
C33         C  0.34545513  0.39662660  0.61914610     0.05000
C34         C  0.32914990  0.39559369  0.64678543    -0.11100
C35         C  0.31136714  0.41226772  0.64908285     0.02500
C36         C  0.30934289  0.42925073  0.62265583    -0.09600
C37         C  0.32568500  0.43071405  0.59517626     0.05000
C38         C  0.34380572  0.41437209  0.59382817    -0.09100
H39         H  0.33088129  0.38246508  0.66719422     0.10600
H40         H  0.29504427  0.44150305  0.62383180     0.08100
H41         H  0.35690178  0.41556367  0.57332212     0.08000
C42         C  0.66237219  0.40270142  0.64775578     0.05000
C43         C  0.66192600  0.41946665  0.62082381    -0.11100
C44         C  0.67803522  0.43783717  0.62044249     0.02500
C45         C  0.69490212  0.43920170  0.64722913    -0.09600
C46         C  0.69590360  0.42227850  0.67390497     0.05000
C47         C  0.67947435  0.40415887  0.67416961    -0.09100
H48         H  0.64929384  0.41790080  0.59967107     0.10600
H49         H  0.70717318  0.45354159  0.64751651     0.08100
H50         H  0.68007101  0.39112362  0.69486045     0.08000
C51         C  0.34313913  0.90004830  0.38343659     0.05000
C52         C  0.32625542  0.90068866  0.35666716    -0.11100
C53         C  0.30997777  0.91881728  0.35522499     0.02500
C54         C  0.31036875  0.93635225  0.38111701    -0.09600
C55         C  0.32688955  0.93576169  0.40859529     0.05000
C56         C  0.34340740  0.91767594  0.40918549    -0.09100
H57         H  0.32570174  0.88700083  0.33692764     0.10600
H58         H  0.29733115  0.94995541  0.38046696     0.08100
H59         H  0.35665535  0.91740367  0.42958277     0.08000
O60         O  0.47135096  0.71465594  0.41337720    -0.71000
O61         O  0.52048730  0.76444582  0.42164634    -0.72000
O62         O  0.47114215  0.76435248  0.41717290    -0.60600
O63         O  0.52038100  0.71506871  0.41811356    -0.69100
O64         O  0.52329768  0.71745573  0.35978254    -0.68600
O65         O  0.47260881  0.76545416  0.35857719    -0.59900
O66         O  0.52210915  0.76685400  0.36328822    -0.72400
O67         O  0.47411229  0.71603488  0.35503413    -0.71100
Cu68       Cu  0.49572688  0.73959440  0.41959357     1.04600
Cu69       Cu  0.49809894  0.74154363  0.35713809     1.04300
C70         C  0.46523088  0.70713630  0.38291203     0.95200
C71         C  0.52914879  0.77354442  0.39373850     0.94300
C72         C  0.46399783  0.77262171  0.38775802     0.86400
C73         C  0.52967675  0.70848434  0.38913788     0.92700
C74         C  0.65351395  0.89813267  0.40882545     0.05000
C75         C  0.65256192  0.91614816  0.43395442    -0.11100
C76         C  0.67028877  0.93308861  0.43611048     0.02500
C77         C  0.68839345  0.93234138  0.41105588    -0.09600
C78         C  0.68925643  0.91506266  0.38468461     0.05000
C79         C  0.67198774  0.89765702  0.38453619    -0.09100
H80         H  0.63802963  0.91675582  0.45206571     0.10600
H81         H  0.70200591  0.94539057  0.41200486     0.08100
H82         H  0.67275667  0.88374910  0.36527586     0.08000
C83         C  0.33666165  0.58784555  0.37640297     0.05000
C84         C  0.33617369  0.57104761  0.40333986    -0.11100
C85         C  0.31636190  0.55707247  0.40902571     0.02500
C86         C  0.29721567  0.55968751  0.38610345    -0.09600
C87         C  0.29814596  0.57521606  0.35755542     0.05000
C88         C  0.31765258  0.58959477  0.35324743    -0.09100
H89         H  0.35133270  0.56906659  0.42000211     0.10600
H90         H  0.28149530  0.54964418  0.39004447     0.08100
H91         H  0.31827370  0.60172785  0.33132309     0.08000
C92         C  0.65732324  0.58841303  0.39517460     0.05000
C93         C  0.65767316  0.57149376  0.42185076    -0.11100
C94         C  0.67536097  0.55474035  0.42298965     0.02500
C95         C  0.69260642  0.55471750  0.39679895    -0.09600
C96         C  0.69237364  0.57153174  0.36994202     0.05000
C97         C  0.67483729  0.58845831  0.36939614    -0.09100
H98         H  0.64394742  0.57113649  0.44148881     0.10600
H99         H  0.70636021  0.54182723  0.39752760     0.08100
H100        H  0.67467455  0.60147626  0.34864978     0.08000
O101        O  0.02277588  0.72225966  0.15754791    -0.71000
O102        O  0.97274897  0.77041474  0.16768252    -0.72000
O103        O  0.97361019  0.72133192  0.16544290    -0.60600
O104        O  0.02200713  0.77153811  0.16022706    -0.69100
O105        O  0.01834864  0.77291975  0.10205214    -0.68600
O106        O  0.96985498  0.72209252  0.10719051    -0.59900
O107        O  0.96891752  0.77128877  0.10943687    -0.72400
O108        O  0.01910455  0.72340478  0.09931795    -0.71100
Cu109      Cu  0.99794810  0.74635673  0.16470137     1.04600
Cu110      Cu  0.99393522  0.74748951  0.10245797     1.04300
C111        C  0.02896132  0.71520568  0.12689968     0.95200
C112        C  0.96258602  0.77819720  0.14006159     0.94300
C113        C  0.96386489  0.71386053  0.13727171     0.86400
C114        C  0.02804783  0.78016977  0.13048088     0.92700
C115        C  0.15844843  0.89877926  0.12750347     0.05000
C116        C  0.17472364  0.89833018  0.15527363    -0.11100
C117        C  0.19377480  0.91365507  0.15547647     0.02500
C118        C  0.19660582  0.92939462  0.12744957    -0.09600
C119        C  0.18012485  0.93073229  0.10003943     0.05000
C120        C  0.16105566  0.91530543  0.10036136    -0.09100
H121        H  0.17258701  0.88602263  0.17674675     0.10600
H122        H  0.21155605  0.94089581  0.12737751     0.08100
H123        H  0.14817087  0.91612349  0.07950059     0.08000
C124        C  0.15579158  0.59437081  0.11862647     0.05000
C125        C  0.17044236  0.59381439  0.14833065    -0.11100
C126        C  0.18796919  0.57695465  0.15129350     0.02500
C127        C  0.19081908  0.56046377  0.12419587    -0.09600
C128        C  0.17597362  0.56051648  0.09468801     0.05000
C129        C  0.15857748  0.57756738  0.09200453    -0.09100
H130        H  0.16817762  0.60650044  0.16928058     0.10600
H131        H  0.20411697  0.54718316  0.12657590     0.08100
H132        H  0.14737352  0.57788631  0.06894685     0.08000
C133        C  0.84041054  0.90302473  0.15578072     0.05000
C134        C  0.84120640  0.92128224  0.13138072    -0.11100
C135        C  0.82600521  0.94025003  0.13438570     0.02500
C136        C  0.81094827  0.94153264  0.16361862    -0.09600
C137        C  0.80957690  0.92305895  0.18816679     0.05000
C138        C  0.82407085  0.90355721  0.18319109    -0.09100
H139        H  0.85354865  0.92057824  0.10973994     0.10600
H140        H  0.80008449  0.95675992  0.16670401     0.08100
H141        H  0.82293873  0.88873818  0.20078939     0.08000
C142        C  0.84351019  0.58599463  0.14748616     0.05000
C143        C  0.82664668  0.58496206  0.17413419    -0.11100
C144        C  0.80941850  0.56774132  0.17366277     0.02500
C145        C  0.80911173  0.55114256  0.14647982    -0.09600
C146        C  0.82624720  0.55144408  0.11998610     0.05000
C147        C  0.84335489  0.56903526  0.12060129    -0.09100
H148        H  0.82684865  0.59765967  0.19536340     0.10600
H149        H  0.79562473  0.53794035  0.14612736     0.08100
H150        H  0.85651667  0.56955758  0.10013105     0.08000
O151        O  0.98164245  0.26872050  0.92213968    -0.71000
O152        O  0.03330940  0.22184587  0.92228960    -0.72000
O153        O  0.03111552  0.27117138  0.91945898    -0.60600
O154        O  0.98389019  0.21955434  0.92529676    -0.69100
O155        O  0.98214569  0.21842783  0.86681732    -0.68600
O156        O  0.02999743  0.26949359  0.86100307    -0.59900
O157        O  0.03149139  0.22032357  0.86388832    -0.72400
O158        O  0.98051265  0.26742617  0.86366175    -0.71100
Cu159      Cu  0.00755208  0.24539662  0.92434460     1.04600
Cu160      Cu  0.00600593  0.24386823  0.86184610     1.04300
C161        C  0.97270608  0.27534001  0.89287239     0.95200
C162        C  0.04062307  0.21362304  0.89292547     0.94300
C163        C  0.03828171  0.27835540  0.88937662     0.86400
C164        C  0.97526603  0.21103602  0.89693593     0.92700
C165        C  0.16292003  0.40297735  0.87965353     0.05000
C166        C  0.17901963  0.40337195  0.85173078    -0.11100
C167        C  0.19613738  0.42082143  0.84968053     0.02500
C168        C  0.19695772  0.43812888  0.87593817    -0.09600
C169        C  0.18116059  0.43792432  0.90423965     0.05000
C170        C  0.16418442  0.42029843  0.90587537    -0.09100
H171        H  0.17827568  0.38997875  0.83157394     0.10600
H172        H  0.21004907  0.45168639  0.87452730     0.08100
H173        H  0.15194567  0.42005882  0.92764443     0.08000
C174        C  0.16651004  0.09151964  0.88847041     0.05000
C175        C  0.16758223  0.07460933  0.91529317    -0.11100
C176        C  0.18444435  0.05694367  0.91434847     0.02500
C177        C  0.20068910  0.05659675  0.88670625    -0.09600
C178        C  0.20008016  0.07350163  0.85996437     0.05000
C179        C  0.18286770  0.09081635  0.86089377    -0.09100
H180        H  0.15534472  0.07522200  0.93705229     0.10600
H181        H  0.21342749  0.04272142  0.88542261     0.08100
H182        H  0.18212214  0.10365203  0.83993804     0.08000
C183        C  0.84892175  0.08897092  0.90648782     0.05000
C184        C  0.84737537  0.07286248  0.93424030    -0.11100
C185        C  0.82950350  0.05623077  0.93483124     0.02500
C186        C  0.81321779  0.05553508  0.90715921    -0.09600
C187        C  0.81481050  0.07132019  0.87884015     0.05000
C188        C  0.83263265  0.08806868  0.87888548    -0.09100
H189        H  0.85980582  0.07354890  0.95578684     0.10600
H190        H  0.79963601  0.04242772  0.90736311     0.08100
H191        H  0.83381379  0.10049970  0.85740302     0.08000
C192        C  0.85008820  0.40014232  0.89299011     0.05000
C193        C  0.83453009  0.40280787  0.86482572    -0.11100
C194        C  0.81686620  0.41958090  0.86605229     0.02500
C195        C  0.81546170  0.43451648  0.89547551    -0.09600
C196        C  0.83150759  0.43261277  0.92343305     0.05000
C197        C  0.84864795  0.41522929  0.92211809    -0.09100
H198        H  0.83618091  0.39168579  0.84179922     0.10600
H199        H  0.80190586  0.44758706  0.89668274     0.08100
H200        H  0.86056061  0.41315971  0.94411472     0.08000
C201        C  0.10411171  0.37302577  0.88754050     0.14600
C202        C  0.11009390  0.34947774  0.88307521     0.01500
C203        C  0.13354642  0.34354310  0.87770147     0.16500
C204        C  0.15073240  0.36086214  0.87694543     0.25900
C205        C  0.14476001  0.38449583  0.88126536    -0.40400
C206        C  0.12124076  0.39036581  0.88661563     0.33000
C207        C  0.09185069  0.33116810  0.88458294     0.01600
F208        F  0.13987323  0.32089588  0.87398651    -0.12700
F209        F  0.11471633  0.41297673  0.89000602    -0.13200
C210        C  0.08756261  0.31668415  0.85533124     0.16500
C211        C  0.07002269  0.29972740  0.85666886     0.25900
C212        C  0.05649298  0.29678510  0.88748221    -0.40400
C213        C  0.06095075  0.31133813  0.91678379     0.32900
C214        C  0.07841393  0.32832058  0.91528373     0.14600
F215        F  0.10018329  0.31917563  0.82522789    -0.12700
F216        F  0.04823889  0.30939901  0.94688373    -0.13200
F217        F  0.06661745  0.28594327  0.82793953    -0.15500
F218        F  0.08245102  0.34184355  0.94411439    -0.14100
F219        F  0.08153418  0.37926827  0.89210292    -0.14100
F220        F  0.17330963  0.35445775  0.87290578    -0.15500
C221        C  0.10733936  0.12050378  0.89577671     0.14600
C222        C  0.11299122  0.14390328  0.88952782     0.01500
C223        C  0.13613336  0.15013799  0.88263415     0.16500
C224        C  0.15358830  0.13319978  0.88261655     0.25900
C225        C  0.14805969  0.10963062  0.88888146    -0.40400
C226        C  0.12468141  0.10345456  0.89520410     0.33000
C227        C  0.09474590  0.16189156  0.89048085     0.01600
F228        F  0.14183807  0.17274304  0.87656692    -0.12700
F229        F  0.11850553  0.08083860  0.89995010    -0.13200
C230        C  0.08486298  0.16857444  0.92279888     0.16500
C231        C  0.06755434  0.18564969  0.92382821     0.25900
C232        C  0.05963793  0.19615492  0.89231089    -0.40400
C233        C  0.06994295  0.18950773  0.85995033     0.32900
C234        C  0.08732534  0.17254335  0.85914059     0.14600
F235        F  0.09216485  0.15864466  0.95342849    -0.12700
F236        F  0.06337899  0.19945923  0.82895071    -0.13200
F237        F  0.05849599  0.19167130  0.95569074    -0.15500
F238        F  0.09674667  0.16626586  0.82763338    -0.14100
F239        F  0.08492844  0.11416161  0.90185781    -0.14100
F240        F  0.17596317  0.13996185  0.87739541    -0.15500
C241        C  0.90848692  0.11732427  0.90853806     0.14600
C242        C  0.90278856  0.14099716  0.90481878     0.01500
C243        C  0.87928178  0.14750951  0.90222167     0.16500
C244        C  0.86176119  0.13059724  0.90297041     0.25900
C245        C  0.86746218  0.10688617  0.90636694    -0.40400
C246        C  0.89096713  0.10039880  0.90933104     0.33000
C247        C  0.92137433  0.15884473  0.90293460     0.01600
F248        F  0.87330045  0.17030659  0.89941872    -0.12700
F249        F  0.89698827  0.07759920  0.91189865    -0.13200
C250        C  0.92378341  0.17269291  0.87257383     0.16500
C251        C  0.94138492  0.18947187  0.87051402     0.25900
C252        C  0.95693578  0.19281952  0.89892531    -0.40400
C253        C  0.95441798  0.17889709  0.92940425     0.32900
C254        C  0.93684388  0.16203141  0.93129372     0.14600
F255        F  0.90920061  0.16975695  0.84465464    -0.12700
F256        F  0.96912734  0.18134364  0.95726702    -0.13200
F257        F  0.94283546  0.20276488  0.84091586    -0.15500
F258        F  0.93470086  0.14899811  0.96106911    -0.14100
F259        F  0.93107967  0.11056160  0.91042106    -0.14100
F260        F  0.83917582  0.13740286  0.90103162    -0.15500
C261        C  0.87691841  0.34023840  0.88347238     0.14600
C262        C  0.90039842  0.34497130  0.89071528     0.01500
C263        C  0.90738884  0.36793361  0.89799383     0.16500
C264        C  0.89106892  0.38590851  0.89867483     0.25900
C265        C  0.86747302  0.38118439  0.89206000    -0.40400
C266        C  0.86054491  0.35819444  0.88425886     0.33000
C267        C  0.91767901  0.32601435  0.89165429     0.01600
F268        F  0.93014014  0.37294580  0.90405394    -0.12700
F269        F  0.83780695  0.35300274  0.87841014    -0.13200
C270        C  0.92243919  0.31282492  0.86128394     0.16500
C271        C  0.94005992  0.29607213  0.86176002     0.25900
C272        C  0.95326829  0.29227737  0.89272232    -0.40400
C273        C  0.94777710  0.30502848  0.92345715     0.32900
C274        C  0.93013473  0.32168479  0.92286027     0.14600
F275        F  0.91047479  0.31664154  0.83085923    -0.12700
F276        F  0.95977336  0.30185394  0.95400641    -0.13200
F277        F  0.94414453  0.28365461  0.83183272    -0.15500
F278        F  0.92523468  0.33375493  0.95283075    -0.14100
F279        F  0.86976836  0.31814081  0.87660533    -0.14100
F280        F  0.89839576  0.40800199  0.90507593    -0.15500
C281        C  0.84923676  0.47784526  0.99145773     0.14600
C282        C  0.82841632  0.48108763  0.01021346     0.01500
C283        C  0.80878949  0.46771972  0.00125792     0.16500
C284        C  0.80979788  0.45179015  0.97321200     0.25900
C285        C  0.83052368  0.44886559  0.95391682    -0.40400
C286        C  0.85033329  0.46180480  0.96365291     0.33000
C287        C  0.82711743  0.49898104  0.03833657     0.01600
F288        F  0.78853148  0.47047426  0.01920807    -0.12700
F289        F  0.87058556  0.45940323  0.94555384    -0.13200
C290        C  0.82858068  0.52269396  0.02953354     0.16500
C291        C  0.82809315  0.53974172  0.05597959     0.25900
C292        C  0.82630633  0.53335513  0.09181352    -0.40400
C293        C  0.82467274  0.50953279  0.10053147     0.32900
C294        C  0.82497029  0.49251139  0.07397372     0.14600
F295        F  0.83023533  0.52931849  0.99516772    -0.12700
F296        F  0.82351996  0.50268356  0.13484551    -0.13200
F297        F  0.82890008  0.56252987  0.04648676    -0.15500
F298        F  0.82377030  0.46966878  0.08307235    -0.14100
F299        F  0.86850876  0.49031207  0.00010252    -0.14100
F300        F  0.79061844  0.43902664  0.96511985    -0.15500
C301        C  0.82647843  0.99831537  0.08599941     0.14600
C302        C  0.82483949  0.99097423  0.05062959     0.01500
C303        C  0.82291755  0.96712833  0.04307175     0.16500
C304        C  0.82299715  0.95078159  0.07038572     0.25900
C305        C  0.82521247  0.95796685  0.10584992    -0.40400
C306        C  0.82675564  0.98192389  0.11345275     0.33000
C307        C  0.82600615  0.00798939  0.02135571     0.01600
F308        F  0.82082596  0.95969935  0.00911931    -0.12700
F309        F  0.82935523  0.98940192  0.14728596    -0.13200
C310        C  0.84504295  0.00770581  0.99807483     0.16500
C311        C  0.84615517  0.02343947  0.96993921     0.25900
C312        C  0.82809006  0.03948035  0.96437950    -0.40400
C313        C  0.80900786  0.03976355  0.98760250     0.32900
C314        C  0.80803937  0.02419564  0.01607097     0.14600
F315        F  0.86265830  0.99228319  0.00286036    -0.12700
F316        F  0.79157123  0.05541146  0.98304209    -0.13200
F317        F  0.86473117  0.02284889  0.94779553    -0.15500
F318        F  0.78945192  0.02468880  0.03819020    -0.14100
F319        F  0.82853089  0.02130813  0.09381193    -0.14100
F320        F  0.82058912  0.92787214  0.06218090    -0.15500
C321        C  0.18318020  0.46657368  0.99469202     0.14600
C322        C  0.18313871  0.49029948  0.98579481     0.01500
C323        C  0.18335203  0.49684688  0.95004188     0.16500
C324        C  0.18296625  0.47985758  0.92345645     0.25900
C325        C  0.18246454  0.45601989  0.93228390    -0.40400
C326        C  0.18294525  0.44956404  0.96819113     0.33000
C327        C  0.18161312  0.50817370  0.01384101     0.01600
F328        F  0.18314810  0.51972011  0.94094355    -0.12700
F329        F  0.18346928  0.42675463  0.97761109    -0.13200
C330        C  0.20072024  0.52255369  0.02169666     0.16500
C331        C  0.19903918  0.53944651  0.04833082     0.25900
C332        C  0.17810229  0.54238249  0.06704376    -0.40400
C333        C  0.15900057  0.52798941  0.05902813     0.32900
C334        C  0.16079767  0.51093933  0.03277431     0.14600
F335        F  0.22100404  0.52009576  0.00371606    -0.12700
F336        F  0.13869668  0.53023350  0.07704403    -0.13200
F337        F  0.21765300  0.55328068  0.05534708    -0.15500
F338        F  0.14211570  0.49725967  0.02546640    -0.14100
F339        F  0.18345204  0.45992328  0.02913609    -0.14100
F340        F  0.18220859  0.48672347  0.88912674    -0.15500
C341        C  0.20559055  0.01453566  0.98424922     0.14600
C342        C  0.18521290  0.00186617  0.99151782     0.01500
C343        C  0.16456944  0.00751635  0.97356314     0.16500
C344        C  0.16426432  0.02559020  0.94879607     0.25900
C345        C  0.18464249  0.03830170  0.94146513    -0.40400
C346        C  0.20532077  0.03260121  0.95942666     0.33000
C347        C  0.18518762  0.98333105  0.01874494     0.01600
F348        F  0.14458727  0.99573417  0.98045916    -0.12700
F349        F  0.22517311  0.04480392  0.95337205    -0.13200
C350        C  0.19015122  0.98885559  0.05409715     0.16500
C351        C  0.18862375  0.97181546  0.08038587     0.25900
C352        C  0.18249830  0.94868494  0.07175450    -0.40400
C353        C  0.17825333  0.94307124  0.03600408     0.32900
C354        C  0.17938177  0.96028972  0.00984201     0.14600
F355        F  0.19565677  0.01104001  0.06337947    -0.12700
F356        F  0.17336533  0.92084383  0.02621121    -0.13200
F357        F  0.19222883  0.97827049  0.11449210    -0.15500
F358        F  0.17498557  0.95443990  0.97568809    -0.14100
F359        F  0.22580162  0.00925530  0.00101399    -0.14100
F360        F  0.14414630  0.03034603  0.93140985    -0.15500
C361        C  0.09744233  0.87312136  0.12169174     0.14600
C362        C  0.10194683  0.84922682  0.12575211     0.01500
C363        C  0.12502243  0.84168723  0.12990674     0.16500
C364        C  0.14333202  0.85777752  0.13026822     0.25900
C365        C  0.13889857  0.88177558  0.12668214    -0.40400
C366        C  0.11575075  0.88928555  0.12221249     0.33000
C367        C  0.08260275  0.83213823  0.12687682     0.01600
F368        F  0.12981237  0.81864368  0.13329943    -0.12700
F369        F  0.11078912  0.91232669  0.11944316    -0.13200
C370        C  0.06939772  0.82723340  0.09652766     0.16500
C371        C  0.05162602  0.81047313  0.09755431     0.25900
C372        C  0.04657822  0.79840184  0.12918492    -0.40400
C373        C  0.05979116  0.80371985  0.15967534     0.32900
C374        C  0.07761206  0.82031298  0.15840466     0.14600
F375        F  0.07406289  0.83835546  0.06565991    -0.12700
F376        F  0.05580368  0.79266934  0.19081952    -0.13200
F377        F  0.03944044  0.80612167  0.06750351    -0.15500
F378        F  0.09002200  0.82494875  0.18815988    -0.14100
F379        F  0.07523616  0.88082451  0.11820518    -0.14100
F380        F  0.16548319  0.84985276  0.13344169    -0.15500
C381        C  0.86603994  0.84255011  0.14684664     0.14600
C382        C  0.88992830  0.84730779  0.15046436     0.01500
C383        C  0.89736403  0.87041152  0.15522014     0.16500
C384        C  0.88119296  0.88849645  0.15656712     0.25900
C385        C  0.85730998  0.88376508  0.15336186    -0.40400
C386        C  0.84980487  0.86068132  0.14846824     0.33000
C387        C  0.90731719  0.82840235  0.14879737     0.01600
F388        F  0.92037356  0.87546584  0.15811019    -0.12700
F389        F  0.82681333  0.85579656  0.14477749    -0.13200
C390        C  0.90989572  0.81520360  0.11783037     0.16500
C391        C  0.92769018  0.79873763  0.11511200     0.25900
C392        C  0.94327007  0.79514850  0.14343303    -0.40400
C393        C  0.94011056  0.80792636  0.17490367     0.32900
C394        C  0.92232150  0.82441517  0.17747242     0.14600
F395        F  0.89561723  0.81879408  0.08974349    -0.12700
F396        F  0.95455714  0.80496697  0.20296015    -0.13200
F397        F  0.92957062  0.78630538  0.08469632    -0.15500
F398        F  0.91981627  0.83667440  0.20795063    -0.14100
F399        F  0.85846756  0.82034709  0.14220943    -0.14100
F400        F  0.88881030  0.91064242  0.16166285    -0.15500
C401        C  0.07994574  0.67591264  0.14931295     0.14600
C402        C  0.08347442  0.66406824  0.11730852     0.01500
C403        C  0.06905027  0.66899385  0.08830854     0.16500
C404        C  0.05136668  0.68563845  0.09123812     0.25900
C405        C  0.04770759  0.69755809  0.12343297    -0.40400
C406        C  0.06228167  0.69245515  0.15241552     0.33000
C407        C  0.10215212  0.64646135  0.11464306     0.01600
F408        F  0.07229378  0.65787209  0.05700195    -0.12700
F409        F  0.05970730  0.70362523  0.18381899    -0.13200
C410        C  0.09670360  0.62297175  0.10828673     0.16500
C411        C  0.11419448  0.60604458  0.10890354     0.25900
C412        C  0.13742866  0.61238560  0.11579490    -0.40400
C413        C  0.14291351  0.63603070  0.12105536     0.32900
C414        C  0.12541676  0.65290196  0.12051547     0.14600
F415        F  0.07429506  0.61631221  0.10299655    -0.12700
F416        F  0.16526240  0.64281372  0.12658360    -0.13200
F417        F  0.10826021  0.58334031  0.10437171    -0.15500
F418        F  0.13114228  0.67558402  0.12589052    -0.14100
F419        F  0.09347220  0.67117675  0.17786597    -0.14100
F420        F  0.03773129  0.68983633  0.06261565    -0.15500
C421        C  0.91702916  0.67389344  0.17439779     0.14600
C422        C  0.91149524  0.66024586  0.14479433     0.01500
C423        C  0.92263992  0.66464699  0.11249089     0.16500
C424        C  0.93941361  0.68222633  0.10983613     0.25900
C425        C  0.94553758  0.69563712  0.13967572    -0.40400
C426        C  0.93395027  0.69137556  0.17196463     0.33000
C427        C  0.89421973  0.64123994  0.14738572     0.01600
F428        F  0.91711695  0.65192950  0.08338365    -0.12700
F429        F  0.93874134  0.70427816  0.20118300    -0.13200
C430        C  0.87054977  0.64630413  0.15208427     0.16500
C431        C  0.85406743  0.62835811  0.15209714     0.25900
C432        C  0.86105543  0.60498919  0.14780837    -0.40400
C433        C  0.88488440  0.59995445  0.14420233     0.32900
C434        C  0.90130405  0.61795711  0.14382553     0.14600
F435        F  0.86335540  0.66870205  0.15564368    -0.12700
F436        F  0.89231248  0.57757379  0.14175562    -0.13200
F437        F  0.83119759  0.63390226  0.15522389    -0.15500
F438        F  0.92420514  0.61269526  0.14026485    -0.14100
F439        F  0.90628170  0.67003034  0.20582189    -0.14100
F440        F  0.94991662  0.68576429  0.07815001    -0.15500
C441        C  0.78271761  0.56530457  0.26463840     0.14600
C442        C  0.75919792  0.56931646  0.25700452     0.01500
C443        C  0.75199739  0.57209487  0.22178666     0.16500
C444        C  0.76828317  0.57103204  0.19437933     0.25900
C445        C  0.79190129  0.56725849  0.20204977    -0.40400
C446        C  0.79899373  0.56429863  0.23732095     0.33000
C447        C  0.74212662  0.57005949  0.28588025     0.01600
F448        F  0.72928912  0.57621930  0.21412977    -0.12700
F449        F  0.82168702  0.56027187  0.24518701    -0.13200
C450        C  0.74041319  0.58981938  0.30758461     0.16500
C451        C  0.72428887  0.59031061  0.33523024     0.25900
C452        C  0.70993514  0.57092105  0.34160997    -0.40400
C453        C  0.71193864  0.55106499  0.32010172     0.32900
C454        C  0.72785738  0.55070486  0.29226449     0.14600
F455        F  0.75425951  0.60861185  0.30179931    -0.12700
F456        F  0.69809290  0.53223918  0.32561224    -0.13200
F457        F  0.72289403  0.60951769  0.35609151    -0.15500
F458        F  0.72949462  0.53143349  0.27160072    -0.14100
F459        F  0.78981844  0.56219615  0.29855558    -0.14100
F460        F  0.76116761  0.57438941  0.16052358    -0.15500
C461        C  0.24974627  0.59505101  0.29650097     0.14600
C462        C  0.24723829  0.57542824  0.27460151     0.01500
C463        C  0.26045331  0.55539980  0.28146466     0.16500
C464        C  0.27640926  0.55514277  0.30935647     0.25900
C465        C  0.27960388  0.57504084  0.33048198    -0.40400
C466        C  0.26600174  0.59493101  0.32413994     0.33000
C467        C  0.23190259  0.57617905  0.24328764     0.01600
F468        F  0.25816182  0.53624681  0.26066947    -0.12700
F469        F  0.26862184  0.61421965  0.34454336    -0.13200
C470        C  0.24166344  0.57810620  0.20938532     0.16500
C471        C  0.22738479  0.57825077  0.17942888     0.25900
C472        C  0.20310633  0.57651259  0.18297421    -0.40400
C473        C  0.19334472  0.57465417  0.21699456     0.32900
C474        C  0.20766966  0.57447110  0.24695744     0.14600
F475        F  0.26505872  0.58008112  0.20541804    -0.12700
F476        F  0.16997572  0.57247851  0.22109678    -0.13200
F477        F  0.23721058  0.58060739  0.14698759    -0.15500
F478        F  0.19796885  0.57220068  0.27949642    -0.14100
F479        F  0.23698389  0.61451660  0.29036143    -0.14100
F480        F  0.28948388  0.53579330  0.31485164    -0.15500
C481        C  0.78241485  0.91219252  0.27866533     0.14600
C482        C  0.75992843  0.92146887  0.27446391     0.01500
C483        C  0.75437180  0.93257723  0.24236244     0.16500
C484        C  0.77026336  0.93298787  0.21436506     0.25900
C485        C  0.79280079  0.92363539  0.21843746    -0.40400
C486        C  0.79885635  0.91398885  0.25154273     0.33000
C487        C  0.74213418  0.91915956  0.30301665     0.01600
F488        F  0.73340117  0.94304046  0.23790074    -0.12700
F489        F  0.82079012  0.90631518  0.25798167    -0.13200
C490        C  0.74753574  0.92463136  0.33837928     0.16500
C491        C  0.73082756  0.92214684  0.36504668     0.25900
C492        C  0.70776041  0.91560020  0.35679752    -0.40400
C493        C  0.70236258  0.91038752  0.32124278     0.32900
C494        C  0.71948069  0.91142222  0.29502030     0.14600
F495        F  0.76889641  0.93292034  0.34720722    -0.12700
F496        F  0.68030649  0.90495652  0.31134381    -0.13200
F497        F  0.73746114  0.92590744  0.39902774    -0.15500
F498        F  0.71382605  0.90469499  0.26166975    -0.14100
F499        F  0.78839813  0.90069902  0.30868192    -0.14100
F500        F  0.76307133  0.94179304  0.18291450    -0.15500
C501        C  0.59428596  0.86833441  0.40675575     0.14600
C502        C  0.60055648  0.84474453  0.40484809     0.01500
C503        C  0.62420131  0.83867525  0.40483096     0.16500
C504        C  0.64138430  0.85597240  0.40635730     0.25900
C505        C  0.63520623  0.87971640  0.40789646    -0.40400
C506        C  0.61142035  0.88568255  0.40827404     0.33000
C507        C  0.58239970  0.82650309  0.40210728     0.01600
F508        F  0.63062915  0.81596539  0.40281757    -0.12700
F509        F  0.60472135  0.90834359  0.40911367    -0.13200
C510        C  0.56992217  0.82361625  0.37051707     0.16500
C511        C  0.55270652  0.80642907  0.36770595     0.25900
C512        C  0.54747995  0.79183713  0.39667255    -0.40400
C513        C  0.56012363  0.79486148  0.42838608     0.32900
C514        C  0.57746382  0.81196619  0.43095346     0.14600
F515        F  0.57460925  0.83736915  0.34220240    -0.12700
F516        F  0.55602467  0.78105557  0.45684733    -0.13200
F517        F  0.54097472  0.80435484  0.33669449    -0.15500
F518        F  0.58933918  0.81450148  0.46176590    -0.14100
F519        F  0.57150019  0.87453654  0.40714372    -0.14100
F520        F  0.66408423  0.84946296  0.40688370    -0.15500
C521        C  0.41926587  0.66623518  0.34528418     0.14600
C522        C  0.41389725  0.65243773  0.37476225     0.01500
C523        C  0.42596255  0.65601191  0.40655757     0.16500
C524        C  0.44271979  0.67365056  0.40920942     0.25900
C525        C  0.44785280  0.68798121  0.37989931    -0.40400
C526        C  0.43614835  0.68375804  0.34769058     0.33000
C527        C  0.39443533  0.63560340  0.37316805     0.01600
F528        F  0.42097186  0.64285162  0.43540162    -0.12700
F529        F  0.44049695  0.69697235  0.31867733    -0.13200
C530        C  0.39850877  0.61150772  0.37446096     0.16500
C531        C  0.37979353  0.59583761  0.37435781     0.25900
C532        C  0.35670356  0.60409590  0.37344843    -0.40400
C533        C  0.35278848  0.62826568  0.37176741     0.32900
C534        C  0.37148879  0.64383277  0.37144657     0.14600
F535        F  0.42059888  0.60320089  0.37577304    -0.12700
F536        F  0.33080609  0.63689763  0.37206267    -0.13200
F537        F  0.38423370  0.57261492  0.37493595    -0.15500
F538        F  0.36720049  0.66707766  0.37072175    -0.14100
F539        F  0.40789923  0.66286731  0.31420915    -0.14100
F540        F  0.45388955  0.67662665  0.44053295    -0.15500
C541        C  0.60719408  0.62517352  0.36236515     0.14600
C542        C  0.60204459  0.63864540  0.39245936     0.01500
C543        C  0.61522534  0.63542560  0.42344418     0.16500
C544        C  0.63313347  0.61902964  0.42432902     0.25900
C545        C  0.63844330  0.60582003  0.39410646    -0.40400
C546        C  0.62538583  0.60907976  0.36307645     0.33000
C547        C  0.58323758  0.65628211  0.39134600     0.01600
F548        F  0.61116880  0.64856886  0.45264982    -0.12700
F549        F  0.62984505  0.59622822  0.33370013    -0.13200
C550        C  0.56583767  0.65663255  0.41747493     0.16500
C551        C  0.54854495  0.67370827  0.41693066     0.25900
C552        C  0.54793376  0.69039201  0.38967306    -0.40400
C553        C  0.56505046  0.68971403  0.36312106     0.32900
C554        C  0.58272539  0.67306301  0.36427466     0.14600
F555        F  0.56533294  0.64019023  0.44326604    -0.12700
F556        F  0.56516025  0.70562960  0.33658026    -0.13200
F557        F  0.53209230  0.67355150  0.44268627    -0.15500
F558        F  0.59974264  0.67376570  0.33940793    -0.14100
F559        F  0.59430127  0.62725564  0.33243596    -0.14100
F560        F  0.64571385  0.61648092  0.45448697    -0.15500
C561        C  0.21859996  0.91865695  0.24818846     0.14600
C562        C  0.24257737  0.91631809  0.24185538     0.01500
C563        C  0.25039508  0.91253391  0.20712529     0.16500
C564        C  0.23450932  0.91130593  0.17910980     0.25900
C565        C  0.21051325  0.91378809  0.18536234    -0.40400
C566        C  0.20268973  0.91737794  0.22018915     0.33000
C567        C  0.25942590  0.91750054  0.27149996     0.01600
F568        F  0.27342112  0.90964871  0.20046129    -0.12700
F569        F  0.17969161  0.92041187  0.22692854    -0.13200
C570        C  0.25884128  0.90068720  0.29848044     0.16500
C571        C  0.27520731  0.90127134  0.32586660     0.25900
C572        C  0.29217193  0.91888574  0.32701992    -0.40400
C573        C  0.29257751  0.93592983  0.30039522     0.32900
C574        C  0.27640241  0.93516024  0.27268053     0.14600
F575        F  0.24274030  0.88337287  0.29780231    -0.12700
F576        F  0.30903200  0.95291541  0.30077551    -0.13200
F577        F  0.27453504  0.88463371  0.35134563    -0.15500
F578        F  0.27723145  0.95167995  0.24703556    -0.14100
F579        F  0.21066482  0.92272977  0.28142805    -0.14100
F580        F  0.24252231  0.90733380  0.14588706    -0.15500
C581        C  0.39016165  0.85769938  0.35499918     0.14600
C582        C  0.39340418  0.84439994  0.38583575     0.01500
C583        C  0.37991632  0.84946274  0.41591914     0.16500
C584        C  0.36372198  0.86765915  0.41529345     0.25900
C585        C  0.36047358  0.88092015  0.38440256    -0.40400
C586        C  0.37378381  0.87568729  0.35423712     0.33000
C587        C  0.41116874  0.82562461  0.38676342     0.01600
F588        F  0.38212834  0.83649213  0.44574548    -0.12700
F589        F  0.37139340  0.88846026  0.32425323    -0.13200
C590        C  0.42863166  0.82569632  0.41285377     0.16500
C591        C  0.44560213  0.80825795  0.41346101     0.25900
C592        C  0.44573842  0.79069563  0.38753648    -0.40400
C593        C  0.42837712  0.79065161  0.36133115     0.32900
C594        C  0.41109545  0.80780573  0.36118011     0.14600
F595        F  0.42967427  0.84307038  0.43717799    -0.12700
F596        F  0.42779074  0.77363939  0.33638373    -0.13200
F597        F  0.46242299  0.80903564  0.43866689    -0.15500
F598        F  0.39405805  0.80679990  0.33633698    -0.14100
F599        F  0.40331813  0.85368057  0.32582608    -0.14100
F600        F  0.35081039  0.87196049  0.44463005    -0.15500
C601        C  0.72579087  0.42239554  0.76313507     0.14600
C602        C  0.74927769  0.42374261  0.75335137     0.01500
C603        C  0.75528472  0.42513060  0.71747443     0.16500
C604        C  0.73790094  0.42492635  0.69154700     0.25900
C605        C  0.71429476  0.42334370  0.70128026    -0.40400
C606        C  0.70840217  0.42227915  0.73732841     0.33000
C607        C  0.76740123  0.42277600  0.78083089     0.01600
F608        F  0.77797584  0.42609070  0.70761241    -0.12700
F609        F  0.68578151  0.42139939  0.74755490    -0.13200
C610        C  0.77320847  0.40133881  0.79611813     0.16500
C611        C  0.78914907  0.40035383  0.82392590     0.25900
C612        C  0.79971197  0.42086647  0.83677376    -0.40400
C613        C  0.79404026  0.44233994  0.82098988     0.32900
C614        C  0.77796268  0.44325657  0.79319921     0.14600
F615        F  0.76321123  0.38136413  0.78425267    -0.12700
F616        F  0.80433984  0.46235500  0.83202837    -0.13200
F617        F  0.79377638  0.37936955  0.83890568    -0.15500
F618        F  0.77244477  0.46413448  0.77861988    -0.14100
F619        F  0.71976683  0.42111777  0.79778825    -0.14100
F620        F  0.74414252  0.42547265  0.65693006    -0.15500
C621        C  0.65589624  0.48171248  0.55351911     0.14600
C622        C  0.67647133  0.48756547  0.53574406     0.01500
C623        C  0.69755592  0.47733299  0.54588539     0.16500
C624        C  0.69811073  0.46125863  0.57355794     0.25900
C625        C  0.67751573  0.45526022  0.59157208    -0.40400
C626        C  0.65638100  0.46570012  0.58131164     0.33000
C627        C  0.67604109  0.50463531  0.50684147     0.01600
F628        F  0.71760468  0.48300385  0.52896756    -0.12700
F629        F  0.63627303  0.46072165  0.59857162    -0.13200
C630        C  0.67487960  0.52847974  0.51456546     0.16500
C631        C  0.67482080  0.54479137  0.48722667     0.25900
C632        C  0.67579292  0.53740948  0.45178277    -0.40400
C633        C  0.67694047  0.51345823  0.44412951     0.32900
C634        C  0.67711199  0.49716644  0.47156460     0.14600
F635        F  0.67413948  0.53591348  0.54863458    -0.12700
F636        F  0.67733975  0.50585480  0.41012924    -0.13200
F637        F  0.67432440  0.56782804  0.49535220    -0.15500
F638        F  0.67805722  0.47409443  0.46380179    -0.14100
F639        F  0.63535246  0.49145305  0.54377124    -0.14100
F640        F  0.71868675  0.45112188  0.58211188    -0.15500
C641        C  0.25379089  0.42171506  0.80056482     0.14600
C642        C  0.24658894  0.41806485  0.76550256     0.01500
C643        C  0.22272975  0.41616110  0.75799512     0.16500
C644        C  0.20630534  0.41748191  0.78519821     0.25900
C645        C  0.21347369  0.42057931  0.82052022    -0.40400
C646        C  0.23740963  0.42284765  0.82786719     0.33000
C647        C  0.26390649  0.41614891  0.73668466     0.01600
F648        F  0.21533828  0.41333443  0.72415188    -0.12700
F649        F  0.24504002  0.42531422  0.86164806    -0.13200
C650        C  0.26573076  0.39548926  0.71686913     0.16500
C651        C  0.28153821  0.39393245  0.68880076     0.25900
C652        C  0.29559179  0.41310038  0.67998366    -0.40400
C653        C  0.29402677  0.43361536  0.70024006     0.32900
C654        C  0.27837232  0.43509842  0.72841656     0.14600
F655        F  0.25216865  0.37683279  0.72477880    -0.12700
F656        F  0.30775119  0.45223467  0.69272000    -0.13200
F657        F  0.28259844  0.37400088  0.66954445    -0.15500
F658        F  0.27691264  0.45525042  0.74709193    -0.14100
F659        F  0.27676705  0.42352680  0.80847884    -0.14100
F660        F  0.18335678  0.41610494  0.77690478    -0.15500
C661        C  0.32712577  0.46319407  0.50774990     0.14600
C662        C  0.32098560  0.48592466  0.51815170     0.01500
C663        C  0.31689179  0.49043391  0.55418526     0.16500
C664        C  0.31907356  0.47268794  0.57921261     0.25900
C665        C  0.32422272  0.44972974  0.56861866    -0.40400
C666        C  0.32808926  0.44518641  0.53250835     0.33000
C667        C  0.31866684  0.50469943  0.49131659     0.01600
F668        F  0.31034662  0.51194691  0.56525627    -0.12700
F669        F  0.33232024  0.42321071  0.52090106    -0.13200
C670        C  0.30582569  0.50081331  0.46021779     0.16500
C671        C  0.30525228  0.51754418  0.43344712     0.25900
C672        C  0.31611247  0.53941400  0.43812655    -0.40400
C673        C  0.32750646  0.54385307  0.47057185     0.32900
C674        C  0.32952287  0.52642429  0.49617468     0.14600
F675        F  0.29385999  0.48063225  0.45554050    -0.12700
F676        F  0.33663538  0.56513237  0.47791421    -0.13200
F677        F  0.29476730  0.51174704  0.40250724    -0.15500
F678        F  0.34266929  0.53067933  0.52532287    -0.14100
F679        F  0.33242568  0.45838753  0.47352780    -0.14100
F680        F  0.31650947  0.47813486  0.61393636    -0.15500
C681        C  0.75782773  0.07111878  0.82809777     0.14600
C682        C  0.76567503  0.07143556  0.79297453     0.01500
C683        C  0.78962573  0.07115510  0.78600863     0.16500
C684        C  0.80561424  0.07062996  0.81391027     0.25900
C685        C  0.79784275  0.07063146  0.84925571    -0.40400
C686        C  0.77376968  0.07075640  0.85606194     0.33000
C687        C  0.74876575  0.07147074  0.76362510     0.01600
F688        F  0.79747133  0.07112734  0.75215219    -0.12700
F689        F  0.76568650  0.07121222  0.88977833    -0.13200
C690        C  0.74338693  0.09221415  0.74581732     0.16500
C691        C  0.72655911  0.09230035  0.71903171     0.25900
C692        C  0.71489883  0.07157584  0.70967806    -0.40400
C693        C  0.72069099  0.05076608  0.72727880     0.32900
C694        C  0.73748869  0.05075137  0.75401774     0.14600
F695        F  0.75410995  0.11243744  0.75490426    -0.12700
F696        F  0.70937339  0.03060916  0.71965493    -0.13200
F697        F  0.72167255  0.11261376  0.70222897    -0.15500
F698        F  0.74256848  0.03054704  0.77096652    -0.14100
F699        F  0.73468343  0.07148540  0.83523095    -0.14100
F700        F  0.82869258  0.06968359  0.80639830    -0.15500
C701        C  0.66253202  0.96244076  0.52614815     0.14600
C702        C  0.67153324  0.98487725  0.52004323     0.01500
C703        C  0.67968270  0.99034305  0.48595951     0.16500
C704        C  0.67824324  0.97406904  0.45846863     0.25900
C705        C  0.67017684  0.95117656  0.46482740    -0.40400
C706        C  0.66259514  0.94561018  0.49935169     0.33000
C707        C  0.67247058  0.00249970  0.54908020     0.01600
F708        F  0.68948425  0.01141098  0.47923598    -0.12700
F709        F  0.65583236  0.92365495  0.50781812    -0.13200
C710        C  0.68164314  0.99671251  0.58248802     0.16500
C711        C  0.68216742  0.01314872  0.60984700     0.25900
C712        C  0.67459103  0.03618940  0.60405944    -0.40400
C713        C  0.66594766  0.04209088  0.57030168     0.32900
C714        C  0.66432738  0.02532538  0.54355226     0.14600
F715        F  0.69048754  0.97517417  0.58864023    -0.12700
F716        F  0.65948083  0.06426873  0.56270464    -0.13200
F717        F  0.68969409  0.00626020  0.64222380    -0.15500
F718        F  0.65445764  0.03143350  0.51227829    -0.14100
F719        F  0.65345587  0.95673902  0.55813522    -0.14100
F720        F  0.68441861  0.98107400  0.42551148    -0.15500
C721        C  0.43511997  0.32503963  0.59046122     0.14600
C722        C  0.42131863  0.33130861  0.61947578     0.01500
C723        C  0.42562554  0.32131853  0.65258926     0.16500
C724        C  0.44332219  0.30493335  0.65676720     0.25900
C725        C  0.45706171  0.29807979  0.62764213    -0.40400
C726        C  0.45283534  0.30850602  0.59441307     0.33000
C727        C  0.40207546  0.34803964  0.61569852     0.01600
F728        F  0.41249186  0.32740959  0.68095642    -0.12700
F729        F  0.46573244  0.30272299  0.56565953    -0.13200
C730        C  0.37901517  0.33999470  0.61474278     0.16500
C731        C  0.36052892  0.35579776  0.61564573     0.25900
C732        C  0.36492198  0.37985751  0.61741607    -0.40400
C733        C  0.38807217  0.38788120  0.61735471     0.32900
C734        C  0.40653000  0.37204967  0.61652780     0.14600
F735        F  0.37448761  0.31679391  0.61344205    -0.12700
F736        F  0.39277977  0.41102255  0.61945553    -0.13200
F737        F  0.33835419  0.34765192  0.61460007    -0.15500
F738        F  0.42874243  0.38007876  0.61780761    -0.14100
F739        F  0.43117147  0.33465183  0.55822087    -0.14100
F740        F  0.44656413  0.29548537  0.68929661    -0.15500
C741        C  0.62976192  0.14605098  0.65533384     0.14600
C742        C  0.60661424  0.14065097  0.66393850     0.01500
C743        C  0.60079470  0.11782352  0.67401876     0.16500
C744        C  0.61782184  0.10041799  0.67430695     0.25900
C745        C  0.64086437  0.10576939  0.66500914    -0.40400
C746        C  0.64679285  0.12874433  0.65600519     0.33000
C747        C  0.58839777  0.15856950  0.66022395     0.01600
F748        F  0.57850299  0.11227974  0.68240247    -0.12700
F749        F  0.66894712  0.13420267  0.64666937    -0.13200
C750        C  0.58335485  0.16769843  0.62672278     0.16500
C751        C  0.56643804  0.18490676  0.62272238     0.25900
C752        C  0.55419667  0.19345979  0.65234183    -0.40400
C753        C  0.55931153  0.18411028  0.68602234     0.32900
C754        C  0.57622204  0.16676692  0.68982345     0.14600
F755        F  0.59478619  0.15976898  0.59770370    -0.12700
F756        F  0.54809406  0.19172865  0.71541131    -0.13200
F757        F  0.56230025  0.19326013  0.58973792    -0.15500
F758        F  0.58106609  0.15828956  0.72251909    -0.14100
F759        F  0.63575957  0.16806561  0.64586764    -0.14100
F760        F  0.61186347  0.07834619  0.68347071    -0.15500
C761        C  0.58305051  0.32211838  0.67768507     0.14600
C762        C  0.59467711  0.32842133  0.64657972     0.01500
C763        C  0.58907545  0.31728461  0.61475706     0.16500
C764        C  0.57164993  0.30029044  0.61379038     0.25900
C765        C  0.55935724  0.29418400  0.64480877    -0.40400
C766        C  0.56557945  0.30512045  0.67693570     0.33000
C767        C  0.61206045  0.34729311  0.64707076     0.01600
F768        F  0.60026130  0.32319050  0.58443765    -0.12700
F769        F  0.55463418  0.29968477  0.70764211    -0.13200
C770        C  0.63582824  0.34219549  0.65021906     0.16500
C771        C  0.65224212  0.36020942  0.65069395     0.25900
C772        C  0.64505018  0.38357326  0.64791492    -0.40400
C773        C  0.62116234  0.38856004  0.64467430     0.32900
C774        C  0.60481598  0.37052796  0.64421868     0.14600
F775        F  0.64308936  0.31976346  0.65267069    -0.12700
F776        F  0.61362279  0.41092478  0.64255250    -0.13200
F777        F  0.67518696  0.35480544  0.65292750    -0.15500
F778        F  0.58187241  0.37568944  0.64086466    -0.14100
F779        F  0.58850532  0.33266141  0.70875691    -0.14100
F780        F  0.56681124  0.28999165  0.58230613    -0.15500
C781        C  0.22584796  0.07213423  0.76766195     0.14600
C782        C  0.24969673  0.07040236  0.77509681     0.01500
C783        C  0.25726230  0.06984566  0.81034733     0.16500
C784        C  0.24114581  0.07104521  0.83796856     0.25900
C785        C  0.21717787  0.07268541  0.83067240    -0.40400
C786        C  0.20967133  0.07320845  0.79523434     0.33000
C787        C  0.26680268  0.06985795  0.74607951     0.01600
F788        F  0.28031028  0.06846073  0.81793028    -0.12700
F789        F  0.18664850  0.07420537  0.78731683    -0.13200
C790        C  0.27400528  0.09069172  0.73022331     0.16500
C791        C  0.29046698  0.09040725  0.70304211     0.25900
C792        C  0.30026175  0.06920482  0.69148953    -0.40400
C793        C  0.29287173  0.04828676  0.70753499     0.32900
C794        C  0.27620108  0.04865060  0.73452611     0.14600
F795        F  0.26511245  0.11135493  0.74125334    -0.12700
F796        F  0.30218625  0.02753977  0.69777110    -0.13200
F797        F  0.29642405  0.11087734  0.68752293    -0.15500
F798        F  0.26924203  0.02832013  0.74951401    -0.14100
F799        F  0.21826777  0.07261187  0.73366450    -0.14100
F800        F  0.24898190  0.07114076  0.87185126    -0.15500
C801        C  0.34821444  0.00470560  0.54387730     0.14600
C802        C  0.32861459  0.00415302  0.52158298     0.01500
C803        C  0.31036567  0.01997960  0.52755336     0.16500
C804        C  0.31164114  0.03595307  0.55550789     0.25900
C805        C  0.33124034  0.03645931  0.57772818    -0.40400
C806        C  0.34953868  0.02076029  0.57164726     0.33000
C807        C  0.32719445  0.98679479  0.49255086     0.01600
F808        F  0.29114489  0.01969165  0.50667930    -0.12700
F809        F  0.36853516  0.02074430  0.59301449    -0.13200
C810        C  0.32840716  0.96289374  0.50021534     0.16500
C811        C  0.32801050  0.94641467  0.47299734     0.25900
C812        C  0.32655445  0.95347348  0.43738813    -0.40400
C813        C  0.32492286  0.97744691  0.42975439     0.32900
C814        C  0.32516894  0.99393970  0.45712034     0.14600
F815        F  0.32969389  0.95547761  0.53424771    -0.12700
F816        F  0.32388831  0.98498549  0.39576996    -0.13200
F817        F  0.32860059  0.92346130  0.48157631    -0.15500
F818        F  0.32414636  0.01694411  0.44896099    -0.14100
F819        F  0.36620708  0.98981737  0.53848013    -0.14100
F820        F  0.29391579  0.05120002  0.56059284    -0.15500
C821        C  0.42001650  0.17710958  0.66052197     0.14600
C822        C  0.41878425  0.16180089  0.63161864     0.01500
C823        C  0.43425057  0.16473451  0.60324854     0.16500
C824        C  0.45125010  0.18221087  0.60431461     0.25900
C825        C  0.45305591  0.19715676  0.63384572    -0.40400
C826        C  0.43693693  0.19462433  0.66166196     0.33000
C827        C  0.40194933  0.14224391  0.63185302     0.01600
F828        F  0.43342943  0.15011371  0.57503765    -0.12700
F829        F  0.43738885  0.20917831  0.68996092    -0.13200
C830        C  0.38440473  0.14069134  0.60605248     0.16500
C831        C  0.36838292  0.12231678  0.60684320     0.25900
C832        C  0.36963248  0.10529662  0.63348150    -0.40400
C833        C  0.38718841  0.10680494  0.65921123     0.32900
C834        C  0.40331096  0.12507107  0.65828014     0.14600
F835        F  0.38243916  0.15729303  0.58067752    -0.12700
F836        F  0.38885579  0.09042528  0.68496200    -0.13200
F837        F  0.35118040  0.12148339  0.58224585    -0.15500
F838        F  0.42047395  0.12588814  0.68293877    -0.14100
F839        F  0.40472358  0.17508730  0.68770110    -0.14100
F840        F  0.46642905  0.18389906  0.57693707    -0.15500
loop_ 
_geom_bond_atom_site_label_1 
_geom_bond_atom_site_label_2 
_geom_bond_distance 
_geom_bond_site_symmetry_2 
_ccdc_geom_bond_type 
C1            C2   1.401       .  A
C1            C6   1.402       .  A
C1          C832   1.478       .  S
C2            C3   1.402       .  A
C2            H7   1.084       .  S
C3            C4   1.405       .  A
C3          C805   1.479       .  S
C4            C5   1.408       .  A
C4            H8   1.083       .  S
C5            C6   1.407       .  A
C5          C792   1.490       .  S
C6            H9   1.084       .  S
O10         Cu18   2.005       .  S
O10          C20   1.277       .  A
O11         Cu18   2.003       .  S
O11          C21   1.278       .  A
O12         Cu18   2.015       .  S
O12          C22   1.279       .  A
O13         Cu18   2.016       .  S
O13          C23   1.279       .  A
O14         Cu19   2.004       .  S
O14          C23   1.277       .  A
O15         Cu19   2.006       .  S
O15          C22   1.277       .  A
O16         Cu19   2.009       .  S
O16          C21   1.278       .  A
O17         Cu19   2.004       .  S
O17          C20   1.278       .  A
Cu18        Cu19   2.365       .  S
C20         C752   1.487       .  S
C21         C725   1.487       .  S
C22         C825   1.487       .  S
C23         C765   1.490       .  S
C24          C25   1.398       .  A
C24          C29   1.401       .  A
C24         C745   1.473       .  S
C25          C26   1.402       .  A
C25          H30   1.084       .  S
C26          C27   1.407       .  A
C26         C692   1.485       .  S
C27          C28   1.410       .  A
C27          H31   1.082       .  S
C28          C29   1.408       .  A
C28         C712   1.495       .  S
C29          H32   1.083       .  S
C33          C34   1.406       .  A
C33          C38   1.402       .  A
C33         C732   1.478       .  S
C34          C35   1.404       .  A
C34          H39   1.084       .  S
C35          C36   1.402       .  A
C35         C652   1.480       .  S
C36          C37   1.404       .  A
C36          H40   1.083       .  S
C37          C38   1.404       .  A
C37         C665   1.486       .  S
C38          H41   1.083       .  S
C42          C43   1.402       .  A
C42          C47   1.403       .  A
C42         C772   1.482       .  S
C43          C44   1.403       .  A
C43          H48   1.084       .  S
C44          C45   1.404       .  A
C44         C625   1.482       .  S
C45          C46   1.402       .  A
C45          H49   1.084       .  S
C46          C47   1.404       .  A
C46         C605   1.480       .  S
C47          H50   1.084       .  S
C51          C52   1.402       .  A
C51          C56   1.404       .  A
C51         C585   1.484       .  S
C52          C53   1.401       .  A
C52          H57   1.084       .  S
C53          C54   1.404       .  A
C53         C572   1.478       .  S
C54          C55   1.408       .  A
C54          H58   1.083       .  S
C55          C56   1.408       .  A
C55         C812   1.490       .  S
C56          H59   1.084       .  S
O60         Cu68   2.016       .  S
O60          C70   1.279       .  A
O61         Cu68   2.016       .  S
O61          C71   1.279       .  A
O62         Cu68   2.008       .  S
O62          C72   1.278       .  A
O63         Cu68   2.000       .  S
O63          C73   1.277       .  A
O64         Cu69   2.006       .  S
O64          C73   1.278       .  A
O65         Cu69   2.010       .  S
O65          C72   1.278       .  A
O66         Cu69   2.016       .  S
O66          C71   1.279       .  A
O67         Cu69   2.012       .  S
O67          C70   1.278       .  A
Cu68        Cu69   2.369       .  S
C70         C525   1.489       .  S
C71         C512   1.491       .  S
C72         C592   1.477       .  S
C73         C552   1.478       .  S
C74          C75   1.405       .  A
C74          C79   1.405       .  A
C74         C505   1.491       .  S
C75          C76   1.410       .  A
C75          H80   1.081       .  S
C76          C77   1.409       .  A
C76         C705   1.502       .  S
C77          C78   1.407       .  A
C77          H81   1.083       .  S
C78          C79   1.408       .  A
C78         C492   1.499       .  S
C79          H82   1.082       .  S
C83          C84   1.404       .  A
C83          C88   1.404       .  A
C83         C532   1.486       .  S
C84          C85   1.409       .  A
C84          H89   1.081       .  S
C85          C86   1.409       .  A
C85         C672   1.497       .  S
C86          C87   1.402       .  A
C86          H90   1.082       .  S
C87          C88   1.401       .  A
C87         C465   1.477       .  S
C88          H91   1.084       .  S
C92          C93   1.401       .  A
C92          C97   1.402       .  A
C92         C545   1.477       .  S
C93          C94   1.401       .  A
C93          H98   1.084       .  S
C94          C95   1.402       .  A
C94         C632   1.476       .  S
C95          C96   1.402       .  A
C95          H99   1.084       .  S
C96          C97   1.401       .  A
C96         C452   1.473       .  S
C97         H100   1.084       .  S
O101       Cu109   2.007   1_455  S
O101        C111   1.278       .  A
O102       Cu109   2.006       .  S
O102        C112   1.278       .  A
O103       Cu109   2.004       .  S
O103        C113   1.277       .  A
O104       Cu109   2.007   1_455  S
O104        C114   1.278       .  A
O105       Cu110   2.024   1_455  S
O105        C114   1.280       .  A
O106       Cu110   2.017       .  S
O106        C113   1.279       .  A
O107       Cu110   2.002       .  S
O107        C112   1.277       .  A
O108       Cu110   2.006   1_455  S
O108        C111   1.277       .  A
Cu109      Cu110   2.366       .  S
C111        C405   1.486       .  S
C112        C392   1.483       .  S
C113        C425   1.487       .  S
C114        C372   1.493       .  S
C115        C116   1.406       .  A
C115        C120   1.406       .  A
C115        C365   1.488       .  S
C116        C117   1.404       .  A
C116        H121   1.084       .  S
C117        C118   1.403       .  A
C117        C565   1.484       .  S
C118        C119   1.406       .  A
C118        H122   1.083       .  S
C119        C120   1.409       .  A
C119        C352   1.492       .  S
C120        H123   1.083       .  S
C124        C125   1.404       .  A
C124        C129   1.403       .  A
C124        C412   1.482       .  S
C125        C126   1.402       .  A
C125        H130   1.084       .  S
C126        C127   1.405       .  A
C126        C472   1.481       .  S
C127        C128   1.404       .  A
C127        H131   1.084       .  S
C128        C129   1.404       .  A
C128        C332   1.480       .  S
C129        H132   1.084       .  S
C133        C134   1.398       .  A
C133        C138   1.400       .  A
C133        C385   1.476       .  S
C134        C135   1.402       .  A
C134        H139   1.084       .  S
C135        C136   1.406       .  A
C135        C305   1.484       .  S
C136        C137   1.412       .  A
C136        H140   1.081       .  S
C137        C138   1.409       .  A
C137        C485   1.498       .  S
C138        H141   1.082       .  S
C142        C143   1.400       .  A
C142        C147   1.407       .  A
C142        C432   1.485       .  S
C143        C144   1.399       .  A
C143        H148   1.084       .  S
C144        C145   1.402       .  A
C144        C445   1.473       .  S
C145        C146   1.406       .  A
C145        H149   1.084       .  S
C146        C147   1.409       .  A
C146        C292   1.487       .  S
C147        H150   1.083       .  S
O151       Cu159   2.006   1_655  S
O151        C161   1.278       .  A
O152       Cu159   2.008       .  S
O152        C162   1.278       .  A
O153       Cu159   2.014       .  S
O153        C163   1.279       .  A
O154       Cu159   2.012   1_655  S
O154        C164   1.278       .  A
O155       Cu160   2.011   1_655  S
O155        C164   1.279       .  A
O156       Cu160   2.016       .  S
O156        C163   1.279       .  A
O157       Cu160   1.996       .  S
O157        C162   1.277       .  A
O158       Cu160   1.996   1_655  S
O158        C161   1.276       .  A
Cu159      Cu160   2.367       .  S
C161        C272   1.482       .  S
C162        C232   1.484       .  S
C163        C212   1.489       .  S
C164        C252   1.486       .  S
C165        C166   1.405       .  A
C165        C170   1.406       .  A
C165        C205   1.489       .  S
C166        C167   1.406       .  A
C166        H171   1.083       .  S
C167        C168   1.405       .  A
C167        C645   1.487       .  S
C168        C169   1.404       .  A
C168        H172   1.083       .  S
C169        C170   1.406       .  A
C169        C325   1.486       .  S
C170        H173   1.083       .  S
C174        C175   1.406       .  A
C174        C179   1.405       .  A
C174        C225   1.486       .  S
C175        C176   1.404       .  A
C175        H180   1.084       .  S
C176        C177   1.402       .  A
C176        C345   1.483       .  S
C177        C178   1.403       .  A
C177        H181   1.084       .  S
C178        C179   1.404       .  A
C178        C785   1.482       .  S
C179        H182   1.083       .  S
C183        C184   1.402       .  A
C183        C188   1.403       .  A
C183        C245   1.480       .  S
C184        C185   1.402       .  A
C184        H189   1.084       .  S
C185        C186   1.404       .  A
C185        C312   1.477       .  S
C186        C187   1.406       .  A
C186        H190   1.084       .  S
C187        C188   1.404       .  A
C187        C685   1.484       .  S
C188        H191   1.084       .  S
C192        C193   1.399       .  A
C192        C197   1.404       .  A
C192        C265   1.479       .  S
C193        C194   1.401       .  A
C193        H198   1.084       .  S
C194        C195   1.407       .  A
C194        C612   1.484       .  S
C195        C196   1.407       .  A
C195        H199   1.083       .  S
C196        C197   1.404       .  A
C196        C285   1.484       .  S
C197        H200   1.084       .  S
C201        C202   1.406       .  A
C201        C206   1.400       .  A
C201        F219   1.358       .  S
C202        C203   1.406       .  A
C202        C207   1.485       .  S
C203        C204   1.401       .  A
C203        F208   1.358       .  S
C204        C205   1.409       .  A
C204        F220   1.358       .  S
C205        C206   1.408       .  A
C206        F209   1.358       .  S
C207        C210   1.405       .  A
C207        C214   1.404       .  A
C210        C211   1.402       .  A
C210        F215   1.358       .  S
C211        C212   1.412       .  A
C211        F217   1.358       .  S
C212        C213   1.411       .  A
C213        C214   1.400       .  A
C213        F216   1.358       .  S
C214        F218   1.358       .  S
C221        C222   1.402       .  A
C221        C226   1.398       .  A
C221        F239   1.358       .  S
C222        C223   1.402       .  A
C222        C227   1.473       .  S
C223        C224   1.398       .  A
C223        F228   1.358       .  S
C224        C225   1.410       .  A
C224        F240   1.358       .  S
C225        C226   1.410       .  A
C226        F229   1.358       .  S
C227        C230   1.402       .  A
C227        C234   1.401       .  A
C230        C231   1.398       .  A
C230        F235   1.358       .  S
C231        C232   1.412       .  A
C231        F237   1.358       .  S
C232        C233   1.413       .  A
C233        C234   1.396       .  A
C233        F236   1.358       .  S
C234        F238   1.358       .  S
C241        C242   1.406       .  A
C241        C246   1.399       .  A
C241        F259   1.358       .  S
C242        C243   1.406       .  A
C242        C247   1.481       .  S
C243        C244   1.398       .  A
C243        F248   1.358       .  S
C244        C245   1.407       .  A
C244        F260   1.358       .  S
C245        C246   1.406       .  A
C246        F249   1.358       .  S
C247        C250   1.404       .  A
C247        C254   1.404       .  A
C250        C251   1.398       .  A
C250        F255   1.358       .  S
C251        C252   1.410       .  A
C251        F257   1.358       .  S
C252        C253   1.411       .  A
C253        C254   1.400       .  A
C253        F256   1.358       .  S
C254        F258   1.358       .  S
C261        C262   1.403       .  A
C261        C266   1.397       .  A
C261        F279   1.358       .  S
C262        C263   1.405       .  A
C262        C267   1.475       .  S
C263        C264   1.396       .  A
C263        F268   1.358       .  S
C264        C265   1.405       .  A
C264        F280   1.358       .  S
C265        C266   1.409       .  A
C266        F269   1.358       .  S
C267        C270   1.403       .  A
C267        C274   1.402       .  A
C270        C271   1.398       .  A
C270        F275   1.358       .  S
C271        C272   1.412       .  A
C271        F277   1.358       .  S
C272        C273   1.410       .  A
C273        C274   1.395       .  A
C273        F276   1.358       .  S
C274        F278   1.358       .  S
C281        C282   1.404   1_556  A
C281        C286   1.399       .  A
C281        F299   1.358   1_556  S
C282        C283   1.405       .  A
C282        C287   1.480       .  S
C283        C284   1.401   1_554  A
C283        F288   1.358       .  S
C284        C285   1.408       .  A
C284        F300   1.358       .  S
C285        C286   1.408       .  A
C286        F289   1.358       .  S
C287        C290   1.404       .  A
C287        C294   1.404       .  A
C290        C291   1.399       .  A
C290        F295   1.358   1_554  S
C291        C292   1.408       .  A
C291        F297   1.358       .  S
C292        C293   1.410       .  A
C293        C294   1.401       .  A
C293        F296   1.358       .  S
C294        F298   1.358       .  S
C301        C302   1.405       .  A
C301        C306   1.402       .  A
C301        F319   1.358   1_565  S
C302        C303   1.403       .  A
C302        C307   1.478   1_565  S
C303        C304   1.396       .  A
C303        F308   1.358       .  S
C304        C305   1.409       .  A
C304        F320   1.358       .  S
C305        C306   1.408       .  A
C306        F309   1.358       .  S
C307        C310   1.405   1_554  A
C307        C314   1.405       .  A
C310        C311   1.398       .  A
C310        F315   1.358   1_546  S
C311        C312   1.405       .  A
C311        F317   1.358       .  S
C312        C313   1.406       .  A
C313        C314   1.401   1_556  A
C313        F316   1.358       .  S
C314        F318   1.358       .  S
C321        C322   1.403       .  A
C321        C326   1.399       .  A
C321        F339   1.358   1_556  S
C322        C323   1.404       .  A
C322        C327   1.478   1_556  S
C323        C324   1.401       .  A
C323        F328   1.358       .  S
C324        C325   1.409       .  A
C324        F340   1.358       .  S
C325        C326   1.408       .  A
C326        F329   1.358       .  S
C327        C330   1.405       .  A
C327        C334   1.404       .  A
C330        C331   1.401       .  A
C330        F335   1.358       .  S
C331        C332   1.407       .  A
C331        F337   1.358       .  S
C332        C333   1.406       .  A
C333        C334   1.398       .  A
C333        F336   1.358       .  S
C334        F338   1.358       .  S
C341        C342   1.405       .  A
C341        C346   1.399       .  A
C341        F359   1.358   1_556  S
C342        C343   1.405       .  A
C342        C347   1.481   1_546  S
C343        C344   1.398       .  A
C343        F348   1.358   1_545  S
C344        C345   1.407       .  A
C344        F360   1.358       .  S
C345        C346   1.408       .  A
C346        F349   1.358       .  S
C347        C350   1.403       .  A
C347        C354   1.405       .  A
C350        C351   1.398       .  A
C350        F355   1.358   1_565  S
C351        C352   1.412       .  A
C351        F357   1.358       .  S
C352        C353   1.411       .  A
C353        C354   1.401       .  A
C353        F356   1.358       .  S
C354        F358   1.358   1_554  S
C361        C362   1.405       .  A
C361        C366   1.402       .  A
C361        F379   1.358       .  S
C362        C363   1.404       .  A
C362        C367   1.483       .  S
C363        C364   1.400       .  A
C363        F368   1.358       .  S
C364        C365   1.408       .  A
C364        F380   1.358       .  S
C365        C366   1.409       .  A
C366        F369   1.358       .  S
C367        C370   1.404       .  A
C367        C374   1.402       .  A
C370        C371   1.403       .  A
C370        F375   1.358       .  S
C371        C372   1.413       .  A
C371        F377   1.358       .  S
C372        C373   1.413       .  A
C373        C374   1.399       .  A
C373        F376   1.358       .  S
C374        F378   1.358       .  S
C381        C382   1.406       .  A
C381        C386   1.400       .  A
C381        F399   1.358       .  S
C382        C383   1.405       .  A
C382        C387   1.478       .  S
C383        C384   1.395       .  A
C383        F388   1.358       .  S
C384        C385   1.404       .  A
C384        F400   1.358       .  S
C385        C386   1.405       .  A
C386        F389   1.358       .  S
C387        C390   1.403       .  A
C387        C394   1.404       .  A
C390        C391   1.397       .  A
C390        F395   1.358       .  S
C391        C392   1.411       .  A
C391        F397   1.358       .  S
C392        C393   1.410       .  A
C393        C394   1.398       .  A
C393        F396   1.358       .  S
C394        F398   1.358       .  S
C401        C402   1.403       .  A
C401        C406   1.396       .  A
C401        F419   1.358       .  S
C402        C403   1.404       .  A
C402        C407   1.479       .  S
C403        C404   1.400       .  A
C403        F408   1.358       .  S
C404        C405   1.412       .  A
C404        F420   1.358       .  S
C405        C406   1.410       .  A
C406        F409   1.358       .  S
C407        C410   1.405       .  A
C407        C414   1.405       .  A
C410        C411   1.399       .  A
C410        F415   1.358       .  S
C411        C412   1.408       .  A
C411        F417   1.358       .  S
C412        C413   1.407       .  A
C413        C414   1.397       .  A
C413        F416   1.358       .  S
C414        F418   1.358       .  S
C421        C422   1.402       .  A
C421        C426   1.400       .  A
C421        F439   1.358       .  S
C422        C423   1.403       .  A
C422        C427   1.478       .  S
C423        C424   1.399       .  A
C423        F428   1.358       .  S
C424        C425   1.410       .  A
C424        F440   1.357       .  S
C425        C426   1.413       .  A
C426        F429   1.358       .  S
C427        C430   1.403       .  A
C427        C434   1.404       .  A
C430        C431   1.399       .  A
C430        F435   1.358       .  S
C431        C432   1.410       .  A
C431        F437   1.358       .  S
C432        C433   1.407       .  A
C433        C434   1.399       .  A
C433        F436   1.358       .  S
C434        F438   1.358       .  S
C441        C442   1.402       .  A
C441        C446   1.395       .  A
C441        F459   1.358       .  S
C442        C443   1.404       .  A
C442        C447   1.469       .  S
C443        C444   1.398       .  A
C443        F448   1.358       .  S
C444        C445   1.405       .  A
C444        F460   1.358       .  S
C445        C446   1.405       .  A
C446        F449   1.358       .  S
C447        C450   1.404       .  A
C447        C454   1.402       .  A
C450        C451   1.398       .  A
C450        F455   1.358       .  S
C451        C452   1.406       .  A
C451        F457   1.358       .  S
C452        C453   1.405       .  A
C453        C454   1.395       .  A
C453        F456   1.358       .  S
C454        F458   1.358       .  S
C461        C462   1.405       .  A
C461        C466   1.402       .  A
C461        F479   1.358       .  S
C462        C463   1.403       .  A
C462        C467   1.477       .  S
C463        C464   1.397       .  A
C463        F468   1.358       .  S
C464        C465   1.406       .  A
C464        F480   1.358       .  S
C465        C466   1.405       .  A
C466        F469   1.358       .  S
C467        C470   1.404       .  A
C467        C474   1.403       .  A
C470        C471   1.399       .  A
C470        F475   1.358       .  S
C471        C472   1.405       .  A
C471        F477   1.358       .  S
C472        C473   1.408       .  A
C473        C474   1.400       .  A
C473        F476   1.358       .  S
C474        F478   1.358       .  S
C481        C482   1.407       .  A
C481        C486   1.399       .  A
C481        F499   1.358       .  S
C482        C483   1.408       .  A
C482        C487   1.494       .  S
C483        C484   1.399       .  A
C483        F488   1.358       .  S
C484        C485   1.411       .  A
C484        F500   1.357       .  S
C485        C486   1.413       .  A
C486        F489   1.358       .  S
C487        C490   1.408       .  A
C487        C494   1.408       .  A
C490        C491   1.400       .  A
C490        F495   1.358       .  S
C491        C492   1.412       .  A
C491        F497   1.357       .  S
C492        C493   1.412       .  A
C493        C494   1.399       .  A
C493        F496   1.358       .  S
C494        F498   1.358       .  S
C501        C502   1.404       .  A
C501        C506   1.401       .  A
C501        F519   1.358       .  S
C502        C503   1.403       .  A
C502        C507   1.481       .  S
C503        C504   1.401       .  A
C503        F508   1.358       .  S
C504        C505   1.410       .  A
C504        F520   1.358       .  S
C505        C506   1.410       .  A
C506        F509   1.358       .  S
C507        C510   1.403       .  A
C507        C514   1.403       .  A
C510        C511   1.401       .  A
C510        F515   1.358       .  S
C511        C512   1.412       .  A
C511        F517   1.358       .  S
C512        C513   1.413       .  A
C513        C514   1.402       .  A
C513        F516   1.358       .  S
C514        F518   1.358       .  S
C521        C522   1.402       .  A
C521        C526   1.400       .  A
C521        F539   1.358       .  S
C522        C523   1.403       .  A
C522        C527   1.479       .  S
C523        C524   1.400       .  A
C523        F528   1.358       .  S
C524        C525   1.412       .  A
C524        F540   1.358       .  S
C525        C526   1.412       .  A
C526        F529   1.358       .  S
C527        C530   1.404       .  A
C527        C534   1.403       .  A
C530        C531   1.402       .  A
C530        F535   1.358       .  S
C531        C532   1.410       .  A
C531        F537   1.358       .  S
C532        C533   1.408       .  A
C533        C534   1.397       .  A
C533        F536   1.358       .  S
C534        F538   1.358       .  S
C541        C542   1.408       .  A
C541        C546   1.396       .  A
C541        F559   1.358       .  S
C542        C543   1.407       .  A
C542        C547   1.483       .  S
C543        C544   1.396       .  A
C543        F548   1.358       .  S
C544        C545   1.405       .  A
C544        F560   1.358       .  S
C545        C546   1.405       .  A
C546        F549   1.358       .  S
C547        C550   1.407       .  A
C547        C554   1.407       .  A
C550        C551   1.397       .  A
C550        F555   1.358       .  S
C551        C552   1.408       .  A
C551        F557   1.358       .  S
C552        C553   1.407       .  A
C553        C554   1.396       .  A
C553        F556   1.358       .  S
C554        F558   1.358       .  S
C561        C562   1.406       .  A
C561        C566   1.401       .  A
C561        F579   1.358       .  S
C562        C563   1.405       .  A
C562        C567   1.482       .  S
C563        C564   1.400       .  A
C563        F568   1.358       .  S
C564        C565   1.407       .  A
C564        F580   1.358       .  S
C565        C566   1.407       .  A
C566        F569   1.358       .  S
C567        C570   1.405       .  A
C567        C574   1.407       .  A
C570        C571   1.399       .  A
C570        F575   1.358       .  S
C571        C572   1.405       .  A
C571        F577   1.358       .  S
C572        C573   1.405       .  A
C573        C574   1.401       .  A
C573        F576   1.358       .  S
C574        F578   1.358       .  S
C581        C582   1.407       .  A
C581        C586   1.399       .  A
C581        F599   1.358       .  S
C582        C583   1.408       .  A
C582        C587   1.486       .  S
C583        C584   1.400       .  A
C583        F588   1.358       .  S
C584        C585   1.407       .  A
C584        F600   1.358       .  S
C585        C586   1.407       .  A
C586        F589   1.358       .  S
C587        C590   1.407       .  A
C587        C594   1.408       .  A
C590        C591   1.399       .  A
C590        F595   1.358       .  S
C591        C592   1.406       .  A
C591        F597   1.358       .  S
C592        C593   1.406       .  A
C593        C594   1.400       .  A
C593        F596   1.358       .  S
C594        F598   1.358       .  S
C601        C602   1.402       .  A
C601        C606   1.397       .  A
C601        F619   1.358       .  S
C602        C603   1.403       .  A
C602        C607   1.472       .  S
C603        C604   1.400       .  A
C603        F608   1.358       .  S
C604        C605   1.409       .  A
C604        F620   1.358       .  S
C605        C606   1.406       .  A
C606        F609   1.358       .  S
C607        C610   1.401       .  A
C607        C614   1.403       .  A
C610        C611   1.396       .  A
C610        F615   1.358       .  S
C611        C612   1.410       .  A
C611        F617   1.358       .  S
C612        C613   1.409       .  A
C613        C614   1.400       .  A
C613        F616   1.358       .  S
C614        F618   1.358       .  S
C621        C622   1.401       .  A
C621        C626   1.397       .  A
C621        F639   1.358       .  S
C622        C623   1.401       .  A
C622        C627   1.469       .  S
C623        C624   1.396       .  A
C623        F628   1.358       .  S
C624        C625   1.409       .  A
C624        F640   1.358       .  S
C625        C626   1.410       .  A
C626        F629   1.358       .  S
C627        C630   1.401       .  A
C627        C634   1.403       .  A
C630        C631   1.395       .  A
C630        F635   1.358       .  S
C631        C632   1.407       .  A
C631        F637   1.358       .  S
C632        C633   1.407       .  A
C633        C634   1.397       .  A
C633        F636   1.358       .  S
C634        F638   1.358       .  S
C641        C642   1.404       .  A
C641        C646   1.399       .  A
C641        F659   1.358       .  S
C642        C643   1.404       .  A
C642        C647   1.481       .  S
C643        C644   1.399       .  A
C643        F648   1.358       .  S
C644        C645   1.409       .  A
C644        F660   1.358       .  S
C645        C646   1.409       .  A
C646        F649   1.358       .  S
C647        C650   1.407       .  A
C647        C654   1.404       .  A
C650        C651   1.401       .  A
C650        F655   1.358       .  S
C651        C652   1.405       .  A
C651        F657   1.358       .  S
C652        C653   1.408       .  A
C653        C654   1.398       .  A
C653        F656   1.358       .  S
C654        F658   1.358       .  S
C661        C662   1.408       .  A
C661        C666   1.396       .  A
C661        F679   1.358       .  S
C662        C663   1.407       .  A
C662        C667   1.487       .  S
C663        C664   1.397       .  A
C663        F668   1.358       .  S
C664        C665   1.409       .  A
C664        F680   1.358       .  S
C665        C666   1.408       .  A
C666        F669   1.358       .  S
C667        C670   1.406       .  A
C667        C674   1.406       .  A
C670        C671   1.396       .  A
C670        F675   1.358       .  S
C671        C672   1.413       .  A
C671        F677   1.357       .  S
C672        C673   1.413       .  A
C673        C674   1.398       .  A
C673        F676   1.358       .  S
C674        F678   1.358       .  S
C681        C682   1.403       .  A
C681        C686   1.399       .  A
C681        F699   1.358       .  S
C682        C683   1.402       .  A
C682        C687   1.475       .  S
C683        C684   1.399       .  A
C683        F688   1.358       .  S
C684        C685   1.410       .  A
C684        F700   1.358       .  S
C685        C686   1.408       .  A
C686        F689   1.358       .  S
C687        C690   1.403       .  A
C687        C694   1.402       .  A
C690        C691   1.400       .  A
C690        F695   1.358       .  S
C691        C692   1.410       .  A
C691        F697   1.358       .  S
C692        C693   1.408       .  A
C693        C694   1.398       .  A
C693        F696   1.358       .  S
C694        F698   1.358       .  S
C701        C702   1.407       .  A
C701        C706   1.400       .  A
C701        F719   1.358       .  S
C702        C703   1.407       .  A
C702        C707   1.494   1_565  S
C703        C704   1.400       .  A
C703        F708   1.358   1_565  S
C704        C705   1.414       .  A
C704        F720   1.357       .  S
C705        C706   1.413       .  A
C706        F709   1.357       .  S
C707        C710   1.409   1_545  A
C707        C714   1.408       .  A
C710        C711   1.400   1_565  A
C710        F715   1.358       .  S
C711        C712   1.410       .  A
C711        F717   1.358       .  S
C712        C713   1.411       .  A
C713        C714   1.399       .  A
C713        F716   1.358       .  S
C714        F718   1.358       .  S
C721        C722   1.402       .  A
C721        C726   1.401       .  A
C721        F739   1.358       .  S
C722        C723   1.400       .  A
C722        C727   1.473       .  S
C723        C724   1.395       .  A
C723        F728   1.358       .  S
C724        C725   1.412       .  A
C724        F740   1.358       .  S
C725        C726   1.413       .  A
C726        F729   1.358       .  S
C727        C730   1.404       .  A
C727        C734   1.402       .  A
C730        C731   1.398       .  A
C730        F735   1.358       .  S
C731        C732   1.406       .  A
C731        F737   1.358       .  S
C732        C733   1.408       .  A
C733        C734   1.398       .  A
C733        F736   1.358       .  S
C734        F738   1.358       .  S
C741        C742   1.404       .  A
C741        C746   1.396       .  A
C741        F759   1.358       .  S
C742        C743   1.405       .  A
C742        C747   1.475       .  S
C743        C744   1.400       .  A
C743        F748   1.358       .  S
C744        C745   1.404       .  A
C744        F760   1.358       .  S
C745        C746   1.404       .  A
C746        F749   1.358       .  S
C747        C750   1.402       .  A
C747        C754   1.402       .  A
C750        C751   1.395       .  A
C750        F755   1.358       .  S
C751        C752   1.411       .  A
C751        F757   1.358       .  S
C752        C753   1.413       .  A
C753        C754   1.400       .  A
C753        F756   1.358       .  S
C754        F758   1.358       .  S
C761        C762   1.401       .  A
C761        C766   1.400       .  A
C761        F779   1.358       .  S
C762        C763   1.400       .  A
C762        C767   1.473       .  S
C763        C764   1.398       .  A
C763        F768   1.358       .  S
C764        C765   1.414       .  A
C764        F780   1.358       .  S
C765        C766   1.413       .  A
C766        F769   1.357       .  S
C767        C770   1.402       .  A
C767        C774   1.402       .  A
C770        C771   1.399       .  A
C770        F775   1.358       .  S
C771        C772   1.408       .  A
C771        F777   1.358       .  S
C772        C773   1.408       .  A
C773        C774   1.397       .  A
C773        F776   1.358       .  S
C774        F778   1.358       .  S
C781        C782   1.403       .  A
C781        C786   1.399       .  A
C781        F799   1.358       .  S
C782        C783   1.402       .  A
C782        C787   1.474       .  S
C783        C784   1.398       .  A
C783        F788   1.358       .  S
C784        C785   1.408       .  A
C784        F800   1.358       .  S
C785        C786   1.408       .  A
C786        F789   1.358       .  S
C787        C790   1.401       .  A
C787        C794   1.402       .  A
C790        C791   1.398       .  A
C790        F795   1.358       .  S
C791        C792   1.411       .  A
C791        F797   1.358       .  S
C792        C793   1.411       .  A
C793        C794   1.401       .  A
C793        F796   1.358       .  S
C794        F798   1.358       .  S
C801        C802   1.407       .  A
C801        C806   1.399       .  A
C801        F819   1.358   1_545  S
C802        C803   1.407       .  A
C802        C807   1.485   1_545  S
C803        C804   1.401       .  A
C803        F808   1.358       .  S
C804        C805   1.405       .  A
C804        F820   1.358       .  S
C805        C806   1.405       .  A
C806        F809   1.358       .  S
C807        C810   1.405       .  A
C807        C814   1.406       .  A
C810        C811   1.398       .  A
C810        F815   1.358       .  S
C811        C812   1.409       .  A
C811        F817   1.358       .  S
C812        C813   1.410       .  A
C813        C814   1.402       .  A
C813        F816   1.358       .  S
C814        F818   1.358   1_565  S
C821        C822   1.404       .  A
C821        C826   1.399       .  A
C821        F839   1.358       .  S
C822        C823   1.404       .  A
C822        C827   1.481       .  S
C823        C824   1.400       .  A
C823        F828   1.358       .  S
C824        C825   1.412       .  A
C824        F840   1.358       .  S
C825        C826   1.410       .  A
C826        F829   1.358       .  S
C827        C830   1.406       .  A
C827        C834   1.407       .  A
C830        C831   1.400       .  A
C830        F835   1.358       .  S
C831        C832   1.406       .  A
C831        F837   1.358       .  S
C832        C833   1.404       .  A
C833        C834   1.399       .  A
C833        F836   1.358       .  S
C834        F838   1.358       .  S
