geometry optimzed in LAMMPS
_audit_creation_date              2020-11-30 
_audit_creation_method            'lammps2cif' 
_symmetry_space_group_name_H-M    'P1' 
_symmetry_Int_Tables_number       1 
_symmetry_cell_setting            triclinic 
loop_ 
_symmetry_equiv_pos_as_xyz 
  x,y,z 
_cell_length_a                    64.42547596 
_cell_length_b                    28.930893208876416 
_cell_length_c                    25.221735921946525 
_cell_angle_alpha                 91.5974405501208 
_cell_angle_beta                  90.01264654819786 
_cell_angle_gamma                 90.00561398126179 
loop_ 
_atom_site_label 
_atom_site_type_symbol 
_atom_site_fract_x 
_atom_site_fract_y 
_atom_site_fract_z 
_atom_site_charge 
C1          C  0.89694216  0.47084226  0.04639476     0.80300
N2          N  0.91783509  0.47717942  0.04624210    -0.78000
C3          C  0.92836842  0.47965860  0.99996704     0.82800
N4          N  0.91795232  0.47613975  0.95346193    -0.77900
C5          C  0.89704293  0.47062342  0.95257335     0.82900
N6          N  0.88655160  0.46785867  0.99931426    -0.79600
C7          C  0.11335096  0.52504605  0.95439967     0.80300
N8          N  0.09241251  0.52008200  0.95469076    -0.78000
C9          C  0.08174382  0.52016259  0.00084806     0.82800
N10         N  0.09209720  0.52494539  0.04735650    -0.77900
C11         C  0.11308710  0.52920287  0.04820501     0.82900
N12         N  0.12370484  0.52934243  0.00143115    -0.79600
O13         O  0.33512454  0.03548755  0.44266459    -0.57700
C14         C  0.32404749  0.03734291  0.60227396     0.74900
O15         O  0.27410036  0.09191299  0.49908521    -0.58900
C16         C  0.32521148  0.03736505  0.39940175     0.74900
C17         C  0.28498186  0.94735314  0.49706592     0.77300
Cd18       Cd  0.30409058  0.03780184  0.50021770     1.37500
O19         O  0.33428225  0.03955757  0.55952998    -0.57700
O20         O  0.30440809  0.95337080  0.49860063    -0.56500
C21         C  0.28509421  0.12824576  0.50281530     0.77300
O22         O  0.27394737  0.98367344  0.49687074    -0.58900
O23         O  0.30448606  0.03580646  0.59779484    -0.57300
O24         O  0.30564662  0.03956621  0.40303658    -0.57300
O25         O  0.30449979  0.12229168  0.50558829    -0.56500
O26         O  0.17496160  0.53660223  0.44341404    -0.57700
C27         C  0.18525866  0.53848030  0.60336814     0.74900
O28         O  0.23566982  0.48345163  0.50397436    -0.58900
C29         C  0.18500559  0.53632294  0.40021583     0.74900
C30         C  0.22485478  0.62813180  0.49980884     0.77300
Cd31       Cd  0.20569708  0.53772902  0.50158955     1.37500
O32         O  0.17513885  0.53872008  0.56031368    -0.57700
O33         O  0.20541493  0.62218297  0.49981061    -0.56500
C34         C  0.22463585  0.44712185  0.50170461     0.77300
O35         O  0.23586451  0.59182547  0.50124919    -0.58900
O36         O  0.20483183  0.53886441  0.59928446    -0.57300
O37         O  0.20460026  0.53613611  0.40404073    -0.57300
O38         O  0.20524250  0.45312042  0.49861159    -0.56500
O39         O  0.67531901  0.96062974  0.44057897    -0.57700
C40         C  0.68540143  0.96166228  0.60062136     0.74900
O41         O  0.73632822  0.90965632  0.49466983    -0.58900
C42         C  0.68536430  0.96371742  0.39764425     0.74900
C43         C  0.72472191  0.05399196  0.50447282     0.77300
Cd44       Cd  0.70597679  0.96321787  0.49929783     1.37500
O45         O  0.67539822  0.96467145  0.55760921    -0.57700
O46         O  0.70531377  0.04774170  0.50256613    -0.56500
C47         C  0.72539175  0.87317946  0.49467458     0.77300
O48         O  0.73585037  0.01781047  0.50440466    -0.58900
O49         O  0.70495937  0.95935768  0.59670477    -0.57300
O50         O  0.70490754  0.96643000  0.40185093    -0.57300
O51         O  0.70595100  0.87892039  0.49648204    -0.56500
O52         O  0.83466271  0.45950699  0.44036389    -0.57700
C53         C  0.82456338  0.46545405  0.60110070     0.74900
O54         O  0.77414435  0.51771590  0.49857427    -0.58900
C55         C  0.82459126  0.46080809  0.39727742     0.74900
C56         C  0.78467847  0.37318954  0.50009773     0.77300
Cd57       Cd  0.80405712  0.46323739  0.49915486     1.37500
O58         O  0.83460441  0.46701470  0.55800219    -0.57700
O59         O  0.80413170  0.37893683  0.49966792    -0.56500
C60         C  0.78529092  0.55387920  0.49857475     0.77300
O61         O  0.77372168  0.40960807  0.49936831    -0.58900
O62         O  0.80500492  0.46316329  0.59705317    -0.57300
O63         O  0.80502810  0.46265523  0.40137331    -0.57300
O64         O  0.80470466  0.54764758  0.49930411    -0.56500
C65         C  0.39659487  0.02727465  0.04681543     0.80300
N66         N  0.41751588  0.02203200  0.04556099    -0.78000
C67         C  0.42785292  0.01846611  0.99891396     0.82800
N68         N  0.41710344  0.02043647  0.95292611    -0.77900
C69         C  0.39617563  0.02607195  0.95305968     0.82900
N70         N  0.38591836  0.02929679  0.00026816    -0.79600
C71         C  0.61337586  0.97253097  0.95222045     0.80300
N72         N  0.59241431  0.97712096  0.95282150    -0.78000
C73         C  0.58184009  0.98050444  0.99911072     0.82800
N74         N  0.59240409  0.97904689  0.04549375    -0.77900
C75         C  0.61337720  0.97418611  0.04602948     0.82900
N76         N  0.62386122  0.97107634  0.99910393    -0.79600
C77         C  0.51414141  0.96431639  0.90855475    -0.17700
C78         C  0.49256183  0.96953766  0.90850160    -0.19900
C79         C  0.48235264  0.98869254  0.95306874     0.20800
C80         C  0.49397690  0.00257309  0.99820870    -0.02800
C81         C  0.51571651  0.99719933  0.99831443    -0.05900
C82         C  0.52583612  0.97805977  0.95322470     0.21000
C83         C  0.52730223  0.01091756  0.04357695     0.19200
C84         C  0.51712097  0.03036567  0.08798954    -0.17300
C85         C  0.49557806  0.03578339  0.08784410    -0.19600
C86         C  0.48389142  0.02177525  0.04331452     0.20700
C87         C  0.46229215  0.02661289  0.04319414    -0.32600
C88         C  0.45060689  0.01297213  0.99839118     0.01400
C89         C  0.46073874  0.99420098  0.95334688    -0.23900
C90         C  0.54745914  0.97292662  0.95366207    -0.28500
C91         C  0.55906753  0.98608053  0.99887156     0.07100
C92         C  0.54886390  0.00495132  0.04369187    -0.27200
H93         H  0.52168570  0.94948372  0.87366331     0.11800
H94         H  0.48385889  0.95863440  0.87358268     0.12900
H95         H  0.52581953  0.04127634  0.12291911     0.12000
H96         H  0.48804256  0.05077839  0.12266276     0.11200
H97         H  0.45459510  0.04145321  0.07789760     0.16600
H98         H  0.45179573  0.98342189  0.91874630     0.12500
H99         H  0.55521945  0.95819002  0.91899947     0.15400
H100        H  0.55773035  0.01553542  0.07850027     0.15200
C101        C  0.61180196  0.98085218  0.75716779    -0.17700
C102        C  0.62179230  0.97912303  0.70800443    -0.19900
C103        C  0.64316790  0.97032869  0.70482884     0.20800
C104        C  0.65458222  0.96280133  0.75159370    -0.02800
C105        C  0.64448532  0.96453778  0.80126355    -0.05900
C106        C  0.62303043  0.97380838  0.80393449     0.21000
C107        C  0.65586864  0.95735509  0.84817794     0.19200
C108        C  0.67721023  0.94795620  0.84483847    -0.17300
C109        C  0.68723570  0.94627067  0.79557232    -0.19600
C110        C  0.67609148  0.95392861  0.74877852     0.20700
C111        C  0.68607788  0.95326800  0.69928810    -0.32600
C112        C  0.67480327  0.96120653  0.65259376     0.01400
C113        C  0.65332959  0.96932630  0.65571902    -0.23900
C114        C  0.61314521  0.97614969  0.85330142    -0.28500
C115        C  0.62433859  0.96948006  0.90049311     0.07100
C116        C  0.64573633  0.95994451  0.89753064    -0.27200
H117        H  0.59529089  0.98791594  0.75863102     0.11800
H118        H  0.61281389  0.98490224  0.67247197     0.12900
H119        H  0.68618233  0.94217990  0.88037522     0.12000
H120        H  0.70374880  0.93924449  0.79410654     0.11200
H121        H  0.70263178  0.94675959  0.69715807     0.16600
H122        H  0.64453480  0.97544593  0.61994516     0.12500
H123        H  0.59665936  0.98353968  0.85478168     0.15400
H124        H  0.65450784  0.95452694  0.93349559     0.15200
C125        C  0.61136170  0.95944450  0.24057018    -0.17700
C126        C  0.62135989  0.95773142  0.28967125    -0.19900
C127        C  0.64303123  0.96158411  0.29296563     0.20800
C128        C  0.65475729  0.96715929  0.24628670    -0.02800
C129        C  0.64465719  0.96878871  0.19666334    -0.05900
C130        C  0.62286891  0.96495477  0.19392551     0.21000
C131        C  0.65634326  0.97430942  0.14989634     0.19200
C132        C  0.67801830  0.97838288  0.15328951    -0.17300
C133        C  0.68803078  0.97687033  0.20248942    -0.19600
C134        C  0.67655138  0.97121646  0.24918071     0.20700
C135        C  0.68645867  0.96973684  0.29869863    -0.32600
C136        C  0.67485892  0.96438007  0.34543524     0.01400
C137        C  0.65314791  0.96017766  0.34214539    -0.23900
C138        C  0.61292185  0.96673392  0.14465119    -0.28500
C139        C  0.62439082  0.97210208  0.09764875     0.07100
C140        C  0.64615330  0.97574136  0.10065904    -0.27200
H141        H  0.59460365  0.95646702  0.23908401     0.11800
H142        H  0.61212912  0.95348021  0.32510434     0.12900
H143        H  0.68723933  0.98275224  0.11786799     0.12000
H144        H  0.70477727  0.98012578  0.20401216     0.11200
H145        H  0.70320242  0.97301939  0.30085268     0.16600
H146        H  0.64408836  0.95600733  0.37790717     0.12500
H147        H  0.59616354  0.96368114  0.14303903     0.15400
H148        H  0.65515272  0.98008199  0.06484102     0.15200
C149        C  0.78528157  0.15938542  0.50872988    -0.17700
C150        C  0.79357206  0.20403740  0.50774975    -0.19900
C151        C  0.78044707  0.24266359  0.50555293     0.20800
C152        C  0.75874881  0.23635040  0.50472622    -0.02800
C153        C  0.75037807  0.19125714  0.50573465    -0.05900
C154        C  0.76372160  0.15258726  0.50754359     0.21000
C155        C  0.72868286  0.18488905  0.50464012     0.19200
C156        C  0.71555564  0.22356092  0.50293965    -0.17300
C157        C  0.72385164  0.26824268  0.50197851    -0.19600
C158        C  0.74542152  0.27503623  0.50267330     0.20700
C159        C  0.75390057  0.31975405  0.50119515    -0.32600
C160        C  0.77554032  0.32624302  0.50166956     0.01400
C161        C  0.78867039  0.28745310  0.50401286    -0.23900
C162        C  0.75528953  0.10782227  0.50774503    -0.28500
C163        C  0.73367766  0.10118226  0.50606686     0.07100
C164        C  0.72049231  0.13997372  0.50488169    -0.27200
H165        H  0.79574719  0.13013872  0.51020671     0.11800
H166        H  0.81027623  0.20835167  0.50852078     0.12900
H167        H  0.69885294  0.21924264  0.50215819     0.12000
H168        H  0.71338751  0.29749029  0.50050709     0.11200
H169        H  0.74367551  0.34942584  0.49955043     0.16600
H170        H  0.80536752  0.29206526  0.50460763     0.12500
H171        H  0.76555139  0.07817436  0.50876029     0.15400
H172        H  0.70380721  0.13524015  0.50366979     0.15200
C173        C  0.78622576  0.76814243  0.49386268    -0.17700
C174        C  0.79451583  0.72345591  0.49503631    -0.19900
C175        C  0.78138041  0.68473454  0.49566451     0.20800
C176        C  0.75968213  0.69105223  0.49499551    -0.02800
C177        C  0.75131860  0.73614964  0.49385713    -0.05900
C178        C  0.76465330  0.77490487  0.49338016     0.21000
C179        C  0.72961741  0.74241849  0.49353612     0.19200
C180        C  0.71648087  0.70372485  0.49409914    -0.17300
C181        C  0.72476258  0.65907778  0.49514862    -0.19600
C182        C  0.74632478  0.65234604  0.49566840     0.20700
C183        C  0.75474194  0.60761961  0.49691146    -0.32600
C184        C  0.77635588  0.60103234  0.49757995     0.01400
C185        C  0.78956049  0.63983627  0.49698128    -0.23900
C186        C  0.75617725  0.81967775  0.49293401    -0.28500
C187        C  0.73453476  0.82615451  0.49319567     0.07100
C188        C  0.72139960  0.78725520  0.49313533    -0.27200
H189        H  0.79669762  0.79743560  0.49353176     0.11800
H190        H  0.81122059  0.71918606  0.49553299     0.12900
H191        H  0.69977357  0.70799835  0.49388694     0.12000
H192        H  0.71428840  0.62979341  0.49566604     0.11200
H193        H  0.74446609  0.57796515  0.49735656     0.16600
H194        H  0.80625019  0.63513847  0.49746367     0.12500
H195        H  0.76640675  0.84942120  0.49294397     0.15400
H196        H  0.70469939  0.79183209  0.49325040     0.15200
C197        C  0.32236832  0.03823907  0.20365862    -0.17700
C198        C  0.33229339  0.03703863  0.15431797    -0.19900
C199        C  0.35401042  0.03471214  0.15115462     0.20800
C200        C  0.36584505  0.03367225  0.19824727    -0.02800
C201        C  0.35583540  0.03488026  0.24803870    -0.05900
C202        C  0.33399019  0.03715249  0.25068647     0.21000
C203        C  0.36767938  0.03366031  0.29509819     0.19200
C204        C  0.38940077  0.03136190  0.29196471    -0.17300
C205        C  0.39931589  0.03017213  0.24263579    -0.19600
C206        C  0.38766948  0.03123486  0.19563638     0.20700
C207        C  0.39748700  0.02961966  0.14610422    -0.32600
C208        C  0.38583436  0.03028837  0.09879497     0.01400
C209        C  0.36406914  0.03310835  0.10175945    -0.23900
C210        C  0.32414122  0.03816893  0.30027687    -0.28500
C211        C  0.33581998  0.03683154  0.34736261     0.07100
C212        C  0.35759925  0.03464043  0.34442374    -0.27200
H213        H  0.30557416  0.03995338  0.20502909     0.11800
H214        H  0.32297020  0.03782682  0.11860410     0.12900
H215        H  0.39872480  0.03040757  0.32767288     0.12000
H216        H  0.41610580  0.02829960  0.24124458     0.11200
H217        H  0.41427574  0.02759561  0.14459791     0.16600
H218        H  0.35492186  0.03366407  0.06571708     0.12500
H219        H  0.30734566  0.03983445  0.30216971     0.15400
H220        H  0.36671327  0.03359571  0.38050247     0.15200
C221        C  0.32111485  0.03026252  0.79811309    -0.17700
C222        C  0.33116188  0.02910535  0.84730723    -0.19900
C223        C  0.35292069  0.03006167  0.85025313     0.20800
C224        C  0.36464067  0.03225507  0.80307826    -0.02800
C225        C  0.35452115  0.03355713  0.75351903    -0.05900
C226        C  0.33264903  0.03254586  0.75101917     0.21000
C227        C  0.36631637  0.03586298  0.70649793     0.19200
C228        C  0.38804942  0.03674682  0.70932010    -0.17300
C229        C  0.39806148  0.03535678  0.75835120    -0.19600
C230        C  0.38649655  0.03307269  0.80532569     0.20700
C231        C  0.39648013  0.03136619  0.85443493    -0.32600
C232        C  0.38501485  0.02886183  0.90180215     0.01400
C233        C  0.36317810  0.02857767  0.89939635    -0.23900
C234        C  0.32273619  0.03388374  0.70149273    -0.28500
C235        C  0.33443509  0.03629354  0.65450114     0.07100
C236        C  0.35620977  0.03725892  0.65742487    -0.27200
H237        H  0.30430588  0.02942524  0.79691177     0.11800
H238        H  0.32190826  0.02736892  0.88305207     0.12900
H239        H  0.39731266  0.03849047  0.67358001     0.12000
H240        H  0.41487336  0.03601217  0.75952572     0.11200
H241        H  0.41329822  0.03194198  0.85554931     0.16600
H242        H  0.35417456  0.02667487  0.93555907     0.12500
H243        H  0.30592946  0.03304873  0.69954975     0.15400
H244        H  0.36533827  0.03900846  0.62143330     0.15200
C245        C  0.29353674  0.29799956  0.51596545    -0.17700
C246        C  0.28513878  0.34260154  0.51592522    -0.19900
C247        C  0.26368812  0.34908351  0.50994574     0.20800
C248        C  0.25054749  0.31016348  0.50444670    -0.02800
C249        C  0.25901970  0.26513216  0.50458045    -0.05900
C250        C  0.28062443  0.25909199  0.51013785     0.21000
C251        C  0.24588643  0.22621872  0.49885881     0.19200
C252        C  0.22441829  0.23268962  0.49331973    -0.17300
C253        C  0.21602769  0.27728978  0.49313343    -0.19600
C254        C  0.22895905  0.31620446  0.49850352     0.20700
C255        C  0.22068261  0.36102596  0.49776671    -0.32600
C256        C  0.23367928  0.40005475  0.50276813     0.01400
C257        C  0.25517336  0.39375703  0.50907137    -0.23900
C258        C  0.28895168  0.21428463  0.50959649    -0.28500
C259        C  0.27598402  0.17527756  0.50376108     0.07100
C260        C  0.25444602  0.18156450  0.49855505    -0.27200
H261        H  0.31015907  0.29394024  0.52039416     0.11800
H262        H  0.29544596  0.37205311  0.52031534     0.12900
H263        H  0.21411104  0.20323759  0.48894244     0.12000
H264        H  0.19940906  0.28134791  0.48860063     0.11200
H265        H  0.20408575  0.36548793  0.49304456     0.16600
H266        H  0.26528090  0.42359350  0.51320664     0.12500
H267        H  0.30557511  0.20981979  0.51367893     0.15400
H268        H  0.24435181  0.15174011  0.49401130     0.15200
C269        C  0.29391180  0.77793453  0.50196141    -0.17700
C270        C  0.28559266  0.73327110  0.50244817    -0.19900
C271        C  0.26405303  0.72644343  0.49953025     0.20800
C272        C  0.25077877  0.76506842  0.49568046    -0.02800
C273        C  0.25917618  0.81016926  0.49521114    -0.05900
C274        C  0.28083788  0.81656052  0.49856085     0.21000
C275        C  0.24589566  0.84881671  0.49169370     0.19200
C276        C  0.22437186  0.84195514  0.48813915    -0.17300
C277        C  0.21605368  0.79728279  0.48856119    -0.19600
C278        C  0.22911099  0.75868311  0.49258346     0.20700
C279        C  0.22086071  0.71385911  0.49382907    -0.32600
C280        C  0.23394953  0.67514291  0.49808927     0.01400
C281        C  0.25555919  0.68173837  0.50064338    -0.23900
C282        C  0.28905537  0.86144700  0.49874780    -0.28500
C283        C  0.27593843  0.90023293  0.49582240     0.07100
C284        C  0.25435671  0.89359947  0.49207814    -0.27200
H285        H  0.31059033  0.78227744  0.50446837     0.11800
H286        H  0.29601441  0.70405827  0.50531569     0.12900
H287        H  0.21395182  0.87116857  0.48525686     0.12000
H288        H  0.19937655  0.79293768  0.48598987     0.11200
H289        H  0.20418711  0.70916108  0.49159063     0.16600
H290        H  0.26575615  0.65214293  0.50378560     0.12500
H291        H  0.30571604  0.86615905  0.50155735     0.15400
H292        H  0.24414904  0.92324262  0.48963830     0.15200
C293        C  0.17770392  0.53884363  0.15504495    -0.17700
C294        C  0.18771514  0.53959322  0.20432051    -0.19900
C295        C  0.17617078  0.53808704  0.25144738     0.20800
C296        C  0.15431169  0.53625989  0.24894185    -0.02800
C297        C  0.14421858  0.53559186  0.19924417    -0.05900
C298        C  0.15597122  0.53665495  0.15203741     0.21000
C299        C  0.12238175  0.53350900  0.19685093     0.19200
C300        C  0.11080418  0.53241452  0.24392983    -0.17300
C301        C  0.12079565  0.53303218  0.29313347    -0.19600
C302        C  0.14252588  0.53479528  0.29605837     0.20700
C303        C  0.15265880  0.53490631  0.34526354    -0.32600
C304        C  0.17444499  0.53638771  0.34810976     0.01400
C305        C  0.18609109  0.53813762  0.30099226    -0.23900
C306        C  0.14580415  0.53512305  0.10272032    -0.28500
C307        C  0.12401065  0.53255664  0.10000735     0.07100
C308        C  0.11246491  0.53213541  0.14745945    -0.27200
H309        H  0.18697377  0.53977120  0.11925842     0.11800
H310        H  0.20451463  0.54111313  0.20555443     0.12900
H311        H  0.09400561  0.53084615  0.24269253     0.12000
H312        H  0.11152319  0.53195262  0.32891034     0.11200
H313        H  0.14356594  0.53366130  0.38135386     0.16600
H314        H  0.20289362  0.53946324  0.30283689     0.12500
H315        H  0.15488082  0.53550794  0.06656545     0.15400
H316        H  0.09566925  0.53028762  0.14618335     0.15200
C317        C  0.11116926  0.53317520  0.75938921    -0.17700
C318        C  0.12115419  0.53545623  0.71036289    -0.19900
C319        C  0.14289546  0.53519065  0.70747817     0.20800
C320        C  0.15470986  0.53248334  0.75444742    -0.02800
C321        C  0.14462096  0.53015203  0.80397375    -0.05900
C322        C  0.12276708  0.53057763  0.80631537     0.21000
C323        C  0.15638492  0.52759494  0.85106228     0.19200
C324        C  0.17813655  0.52709564  0.84807282    -0.17300
C325        C  0.18814782  0.52939089  0.79895397    -0.19600
C326        C  0.17658315  0.53219888  0.75195464     0.20700
C327        C  0.18648303  0.53463478  0.70252419    -0.32600
C328        C  0.17478925  0.53720090  0.65552717     0.01400
C329        C  0.15300076  0.53751816  0.65842112    -0.23900
C330        C  0.11284165  0.52862524  0.85551738    -0.28500
C331        C  0.12438377  0.52640123  0.90285311     0.07100
C332        C  0.14619836  0.52580937  0.90023883    -0.27200
H333        H  0.09435698  0.53352927  0.76060868     0.11800
H334        H  0.11186526  0.53748581  0.67468828     0.12900
H335        H  0.18741724  0.52506734  0.88375423     0.12000
H336        H  0.20495986  0.52904632  0.79774019     0.11200
H337        H  0.20329290  0.53424520  0.70063823     0.16600
H338        H  0.14387341  0.53941904  0.62243630     0.12500
H339        H  0.09602801  0.52925300  0.85677093     0.15400
H340        H  0.15525043  0.52394658  0.93633755     0.15200
C341        C  0.82205759  0.47108166  0.20172444    -0.17700
C342        C  0.83213390  0.47234703  0.15260852    -0.19900
C343        C  0.85382237  0.46855994  0.14949642     0.20800
C344        C  0.86545480  0.46334678  0.19641161    -0.02800
C345        C  0.85529391  0.46205941  0.24595877    -0.05900
C346        C  0.83348942  0.46599899  0.24861041     0.21000
C347        C  0.86697936  0.45719317  0.29283438     0.19200
C348        C  0.88865758  0.45340664  0.28978456    -0.17300
C349        C  0.89871336  0.45467483  0.24074171    -0.19600
C350        C  0.88725932  0.45978874  0.19393147     0.20700
C351        C  0.89728160  0.46183094  0.14478871    -0.32600
C352        C  0.88587005  0.46739862  0.09773040     0.01400
C353        C  0.86408768  0.47033471  0.10042779    -0.23900
C354        C  0.82353340  0.46511458  0.29810286    -0.28500
C355        C  0.83510371  0.46056889  0.34504605     0.07100
C356        C  0.85682185  0.45650734  0.34197979    -0.27200
H357        H  0.80530451  0.47422812  0.20304739     0.11800
H358        H  0.82295842  0.47645903  0.11705190     0.12900
H359        H  0.89785230  0.44964572  0.32537691     0.12000
H360        H  0.91547977  0.45188466  0.23945668     0.11200
H361        H  0.91405489  0.45917313  0.14335152     0.16600
H362        H  0.85513461  0.47470730  0.06453019     0.12500
H363        H  0.80678645  0.46836232  0.30008926     0.15400
H364        H  0.86585876  0.45299606  0.37790087     0.15200
C365        C  0.89838777  0.48308514  0.75773276    -0.17700
C366        C  0.88828578  0.48266724  0.70867754    -0.19900
C367        C  0.86684470  0.47459415  0.70551828     0.20800
C368        C  0.85544650  0.46695701  0.75226641    -0.02800
C369        C  0.86565116  0.46741890  0.80182914    -0.05900
C370        C  0.88720872  0.47547587  0.80444175     0.21000
C371        C  0.85428688  0.45992072  0.84868039     0.19200
C372        C  0.83283877  0.45183240  0.84545155    -0.17300
C373        C  0.82272176  0.45129554  0.79630660    -0.19600
C374        C  0.83386810  0.45891478  0.74951605     0.20700
C375        C  0.82383775  0.45866382  0.70005736    -0.32600
C376        C  0.83512701  0.46613278  0.65326871     0.01400
C377        C  0.85663073  0.47402500  0.65641444    -0.23900
C378        C  0.89723866  0.47597302  0.85369002    -0.28500
C379        C  0.88605963  0.46883128  0.90080905     0.07100
C380        C  0.86454454  0.46076574  0.89787695    -0.27200
H381        H  0.91496082  0.48939676  0.75913770     0.11800
H382        H  0.89725227  0.48864288  0.67318288     0.12900
H383        H  0.82387157  0.44596450  0.88096680     0.12000
H384        H  0.80614856  0.44499761  0.79491321     0.11200
H385        H  0.80726141  0.45242122  0.69797604     0.16600
H386        H  0.86543916  0.47988864  0.62060839     0.12500
H387        H  0.91380972  0.48233802  0.85515425     0.15400
H388        H  0.85576069  0.45518683  0.93377640     0.15200
C389        C  0.01282362  0.56026492  0.07272348    -0.17700
C390        C  0.99128183  0.55452615  0.07269874    -0.19900
C391        C  0.98182648  0.52336139  0.03657304     0.20800
C392        C  0.99412933  0.49836982  0.99936778    -0.02800
C393        C  0.01583679  0.50409482  0.99945127    -0.05900
C394        C  0.02522470  0.53489057  0.03666078     0.21000
C395        C  0.02813913  0.47887803  0.96246210     0.19200
C396        C  0.01866707  0.44818944  0.92584330    -0.17300
C397        C  0.99712644  0.44258199  0.92568729    -0.19600
C398        C  0.98475563  0.46751249  0.96221374     0.20700
C399        C  0.96317894  0.46203201  0.96237103    -0.32600
C400        C  0.95095258  0.48611621  0.99996760     0.01400
C401        C  0.96030068  0.51660576  0.03704856    -0.23900
C402        C  0.04684969  0.53963374  0.03722966    -0.28500
C403        C  0.05910044  0.51476107  0.00035647     0.07100
C404        C  0.04969920  0.48474821  0.96283999    -0.27200
H405        H  0.01980152  0.58432424  0.10119309     0.11800
H406        H  0.98202383  0.57425807  0.10115496     0.12900
H407        H  0.02792217  0.42851932  0.89732511     0.12000
H408        H  0.99014059  0.41868366  0.89705147     0.11200
H409        H  0.95589296  0.43840255  0.93388087     0.16600
H410        H  0.95076420  0.53553802  0.06565337     0.12500
H411        H  0.05415688  0.56311707  0.06583852     0.15400
H412        H  0.05922309  0.46540741  0.93456174     0.15200
loop_ 
_geom_bond_atom_site_label_1 
_geom_bond_atom_site_label_2 
_geom_bond_distance 
_geom_bond_site_symmetry_2 
_ccdc_geom_bond_type 
C1            N2   1.358       .  A
C1            N6   1.364   1_554  A
C1          C352   1.484       .  S
N2            C3   1.354   1_554  A
C3            N4   1.353       .  A
C3          C400   1.467       .  S
N4            C5   1.357       .  A
C5            N6   1.363       .  A
C5          C379   1.485       .  S
C7            N8   1.357       .  A
C7           N12   1.363   1_556  A
C7          C331   1.483       .  S
N8            C9   1.352   1_556  A
C9           N10   1.353       .  A
C9          C403   1.467       .  S
N10          C11   1.358       .  A
C11          N12   1.364       .  A
C11         C307   1.485       .  S
O13          C16   1.267       .  A
O13         Cd18   2.471       .  S
C14         C235   1.478       .  S
C14          O23   1.266       .  A
C14          O19   1.267       .  A
O15          C21   1.269       .  A
O15         Cd18   2.488       .  S
C16         C211   1.480       .  S
C16          O24   1.265       .  A
C17         C283   1.482       .  S
C17          O22   1.269       .  A
C17          O20   1.264       .  A
Cd18         O25   2.444       .  S
Cd18         O24   2.455       .  S
Cd18         O23   2.463       .  S
Cd18         O19   2.453       .  S
Cd18         O22   2.495   1_545  S
Cd18         O20   2.442   1_545  S
C21         C259   1.481       .  S
C21          O25   1.264       .  A
O26          C29   1.267       .  A
O26         Cd31   2.464       .  S
C27         C328   1.480       .  S
C27          O36   1.265       .  A
C27          O32   1.267       .  A
O28          C34   1.269       .  A
O28         Cd31   2.491       .  S
C29         C304   1.480       .  S
C29          O37   1.266       .  A
C30         C280   1.483       .  S
C30          O35   1.269       .  A
C30          O33   1.264       .  A
Cd31         O38   2.447       .  S
Cd31         O37   2.460       .  S
Cd31         O36   2.464       .  S
Cd31         O32   2.464       .  S
Cd31         O35   2.495       .  S
Cd31         O33   2.445       .  S
C34         C256   1.482       .  S
C34          O38   1.264       .  A
O39          C42   1.267       .  A
O39         Cd44   2.468       .  S
C40         C112   1.479       .  S
C40          O49   1.266       .  A
C40          O45   1.267       .  A
O41          C47   1.269       .  A
O41         Cd44   2.496       .  S
C42         C136   1.481       .  S
C42          O50   1.266       .  A
C43         C163   1.482       .  S
C43          O48   1.269       .  A
C43          O46   1.264       .  A
Cd44         O51   2.438       .  S
Cd44         O50   2.463       .  S
Cd44         O49   2.463       .  S
Cd44         O45   2.458       .  S
Cd44         O48   2.491   1_565  S
Cd44         O46   2.445   1_565  S
C47         C187   1.482       .  S
C47          O51   1.264       .  A
O52          C55   1.267       .  A
O52         Cd57   2.468       .  S
C53         C376   1.481       .  S
C53          O62   1.266       .  A
C53          O58   1.267       .  A
O54          C60   1.269       .  A
O54         Cd57   2.490       .  S
C55         C355   1.481       .  S
C55          O63   1.266       .  A
C56         C160   1.482       .  S
C56          O61   1.269       .  A
C56          O59   1.264       .  A
Cd57         O64   2.442       .  S
Cd57         O63   2.467       .  S
Cd57         O62   2.470       .  S
Cd57         O58   2.465       .  S
Cd57         O61   2.495       .  S
Cd57         O59   2.439       .  S
C60         C184   1.482       .  S
C60          O64   1.264       .  A
C65          N66   1.357       .  A
C65          N70   1.363       .  A
C65         C208   1.484       .  S
N66          C67   1.353   1_554  A
C67          N68   1.353       .  A
C67          C88   1.475       .  S
N68          C69   1.358       .  A
C69          N70   1.363   1_556  A
C69         C232   1.483       .  S
C71          N72   1.357       .  A
C71          N76   1.363       .  A
C71         C115   1.484       .  S
N72          C73   1.353       .  A
C73          N74   1.355   1_556  A
C73          C91   1.476       .  S
N74          C75   1.359       .  A
C75          N76   1.364   1_554  A
C75         C139   1.485       .  S
C77          C78   1.398       .  A
C77          C82   1.403       .  A
C77          H93   1.084       .  S
C78          C79   1.403       .  A
C78          H94   1.083       .  S
C79          C89   1.402       .  A
C79          C80   1.412   1_565  A
C80          C86   1.411   1_556  A
C80          C81   1.409   1_545  A
C81          C83   1.411   1_566  A
C81          C82   1.411       .  A
C82          C90   1.401       .  A
C83          C92   1.400       .  A
C83          C84   1.402       .  A
C84          C85   1.397       .  A
C84          H95   1.084       .  S
C85          C86   1.402       .  A
C85          H96   1.084       .  S
C86          C87   1.399       .  A
C87          C88   1.405   1_554  A
C87          H97   1.084       .  S
C88          C89   1.406   1_545  A
C89          H98   1.084       .  S
C90          C91   1.407       .  A
C90          H99   1.084       .  S
C91          C92   1.405   1_566  A
C92         H100   1.084       .  S
C101        C102   1.397       .  A
C101        C106   1.403       .  A
C101        H117   1.084       .  S
C102        C103   1.402       .  A
C102        H118   1.083       .  S
C103        C113   1.401       .  A
C103        C104   1.412       .  A
C104        C110   1.411       .  A
C104        C105   1.411       .  A
C105        C107   1.412       .  A
C105        C106   1.409       .  A
C106        C114   1.399       .  A
C107        C116   1.406       .  A
C107        C108   1.404       .  A
C108        C109   1.400       .  A
C108        H119   1.083       .  S
C109        C110   1.404       .  A
C109        H120   1.084       .  S
C110        C111   1.404       .  A
C111        C112   1.408       .  A
C111        H121   1.084       .  S
C112        C113   1.405       .  A
C113        H122   1.084       .  S
C114        C115   1.409       .  A
C114        H123   1.084       .  S
C115        C116   1.408       .  A
C116        H124   1.084       .  S
C125        C126   1.398       .  A
C125        C130   1.404       .  A
C125        H141   1.084       .  S
C126        C127   1.403       .  A
C126        H142   1.083       .  S
C127        C137   1.403       .  A
C127        C128   1.412       .  A
C128        C134   1.411       .  A
C128        C129   1.412       .  A
C129        C131   1.412       .  A
C129        C130   1.410       .  A
C130        C138   1.400       .  A
C131        C140   1.406       .  A
C131        C132   1.404       .  A
C132        C133   1.400       .  A
C132        H143   1.083       .  S
C133        C134   1.404       .  A
C133        H144   1.084       .  S
C134        C135   1.404       .  A
C135        C136   1.408       .  A
C135        H145   1.084       .  S
C136        C137   1.406       .  A
C137        H146   1.084       .  S
C138        C139   1.409       .  A
C138        H147   1.084       .  S
C139        C140   1.408       .  A
C140        H148   1.084       .  S
C149        C150   1.399       .  A
C149        C154   1.403       .  A
C149        H165   1.083       .  S
C150        C151   1.404       .  A
C150        H166   1.083       .  S
C151        C161   1.401       .  A
C151        C152   1.410       .  A
C152        C158   1.413       .  A
C152        C153   1.412       .  A
C153        C155   1.410       .  A
C153        C154   1.413       .  A
C154        C162   1.405       .  A
C155        C164   1.403       .  A
C155        C156   1.404       .  A
C156        C157   1.400       .  A
C156        H167   1.083       .  S
C157        C158   1.403       .  A
C157        H168   1.083       .  S
C158        C159   1.406       .  A
C159        C160   1.407       .  A
C159        H169   1.084       .  S
C160        C161   1.408       .  A
C161        H170   1.084       .  S
C162        C163   1.406       .  A
C162        H171   1.084       .  S
C163        C164   1.409       .  A
C164        H172   1.084       .  S
C173        C174   1.400       .  A
C173        C178   1.404       .  A
C173        H189   1.083       .  S
C174        C175   1.404       .  A
C174        H190   1.083       .  S
C175        C185   1.403       .  A
C175        C176   1.410       .  A
C176        C182   1.413       .  A
C176        C177   1.413       .  A
C177        C179   1.410       .  A
C177        C178   1.413       .  A
C178        C186   1.406       .  A
C179        C188   1.401       .  A
C179        C180   1.404       .  A
C180        C181   1.399       .  A
C180        H191   1.083       .  S
C181        C182   1.403       .  A
C181        H192   1.083       .  S
C182        C183   1.404       .  A
C183        C184   1.406       .  A
C183        H193   1.084       .  S
C184        C185   1.409       .  A
C185        H194   1.084       .  S
C186        C187   1.407       .  A
C186        H195   1.084       .  S
C187        C188   1.408       .  A
C188        H196   1.084       .  S
C197        C198   1.399       .  A
C197        C202   1.404       .  A
C197        H213   1.084       .  S
C198        C199   1.403       .  A
C198        H214   1.083       .  S
C199        C209   1.404       .  A
C199        C200   1.412       .  A
C200        C206   1.409       .  A
C200        C201   1.411       .  A
C201        C203   1.412       .  A
C201        C202   1.410       .  A
C202        C210   1.402       .  A
C203        C212   1.403       .  A
C203        C204   1.403       .  A
C204        C205   1.398       .  A
C204        H215   1.083       .  S
C205        C206   1.404       .  A
C205        H216   1.084       .  S
C206        C207   1.400       .  A
C207        C208   1.410       .  A
C207        H217   1.084       .  S
C208        C209   1.406       .  A
C209        H218   1.084       .  S
C210        C211   1.407       .  A
C210        H219   1.084       .  S
C211        C212   1.406       .  A
C212        H220   1.084       .  S
C221        C222   1.401       .  A
C221        C226   1.404       .  A
C221        H237   1.084       .  S
C222        C223   1.404       .  A
C222        H238   1.083       .  S
C223        C233   1.406       .  A
C223        C224   1.412       .  A
C224        C230   1.409       .  A
C224        C225   1.411       .  A
C225        C227   1.412       .  A
C225        C226   1.411       .  A
C226        C234   1.404       .  A
C227        C236   1.400       .  A
C227        C228   1.402       .  A
C228        C229   1.396       .  A
C228        H239   1.084       .  S
C229        C230   1.403       .  A
C229        H240   1.084       .  S
C230        C231   1.398       .  A
C231        C232   1.408       .  A
C231        H241   1.084       .  S
C232        C233   1.408       .  A
C233        H242   1.084       .  S
C234        C235   1.408       .  A
C234        H243   1.084       .  S
C235        C236   1.405       .  A
C236        H244   1.084       .  S
C245        C246   1.399       .  A
C245        C250   1.404       .  A
C245        H261   1.083       .  S
C246        C247   1.403       .  A
C246        H262   1.083       .  S
C247        C257   1.405       .  A
C247        C248   1.412       .  A
C248        C254   1.410       .  A
C248        C249   1.413       .  A
C249        C251   1.412       .  A
C249        C250   1.410       .  A
C250        C258   1.403       .  A
C251        C260   1.405       .  A
C251        C252   1.403       .  A
C252        C253   1.399       .  A
C252        H263   1.083       .  S
C253        C254   1.404       .  A
C253        H264   1.083       .  S
C254        C255   1.403       .  A
C255        C256   1.408       .  A
C255        H265   1.084       .  S
C256        C257   1.406       .  A
C257        H266   1.084       .  S
C258        C259   1.408       .  A
C258        H267   1.084       .  S
C259        C260   1.406       .  A
C260        H268   1.084       .  S
C269        C270   1.399       .  A
C269        C274   1.404       .  A
C269        H285   1.083       .  S
C270        C271   1.403       .  A
C270        H286   1.083       .  S
C271        C281   1.405       .  A
C271        C272   1.413       .  A
C272        C278   1.410       .  A
C272        C273   1.413       .  A
C273        C275   1.413       .  A
C273        C274   1.410       .  A
C274        C282   1.402       .  A
C275        C284   1.405       .  A
C275        C276   1.403       .  A
C276        C277   1.399       .  A
C276        H287   1.083       .  S
C277        C278   1.404       .  A
C277        H288   1.083       .  S
C278        C279   1.403       .  A
C279        C280   1.409       .  A
C279        H289   1.084       .  S
C280        C281   1.406       .  A
C281        H290   1.084       .  S
C282        C283   1.408       .  A
C282        H291   1.084       .  S
C283        C284   1.406       .  A
C284        H292   1.084       .  S
C293        C294   1.400       .  A
C293        C298   1.404       .  A
C293        H309   1.083       .  S
C294        C295   1.404       .  A
C294        H310   1.084       .  S
C295        C305   1.403       .  A
C295        C296   1.411       .  A
C296        C302   1.412       .  A
C296        C297   1.412       .  A
C297        C299   1.409       .  A
C297        C298   1.412       .  A
C298        C306   1.405       .  A
C299        C308   1.399       .  A
C299        C300   1.403       .  A
C300        C301   1.398       .  A
C300        H311   1.084       .  S
C301        C302   1.403       .  A
C301        H312   1.083       .  S
C302        C303   1.402       .  A
C303        C304   1.406       .  A
C303        H313   1.084       .  S
C304        C305   1.408       .  A
C305        H314   1.084       .  S
C306        C307   1.408       .  A
C306        H315   1.084       .  S
C307        C308   1.410       .  A
C308        H316   1.084       .  S
C317        C318   1.397       .  A
C317        C322   1.403       .  A
C317        H333   1.084       .  S
C318        C319   1.403       .  A
C318        H334   1.083       .  S
C319        C329   1.402       .  A
C319        C320   1.412       .  A
C320        C326   1.411       .  A
C320        C321   1.412       .  A
C321        C323   1.412       .  A
C321        C322   1.409       .  A
C322        C330   1.399       .  A
C323        C332   1.406       .  A
C323        C324   1.403       .  A
C324        C325   1.400       .  A
C324        H335   1.083       .  S
C325        C326   1.404       .  A
C325        H336   1.084       .  S
C326        C327   1.404       .  A
C327        C328   1.408       .  A
C327        H337   1.084       .  S
C328        C329   1.406       .  A
C329        H338   1.084       .  S
C330        C331   1.409       .  A
C330        H339   1.084       .  S
C331        C332   1.407       .  A
C332        H340   1.084       .  S
C341        C342   1.400       .  A
C341        C346   1.404       .  A
C341        H357   1.084       .  S
C342        C343   1.404       .  A
C342        H358   1.083       .  S
C343        C353   1.406       .  A
C343        C344   1.412       .  A
C344        C350   1.410       .  A
C344        C345   1.412       .  A
C345        C347   1.412       .  A
C345        C346   1.411       .  A
C346        C354   1.404       .  A
C347        C356   1.402       .  A
C347        C348   1.403       .  A
C348        C349   1.398       .  A
C348        H359   1.083       .  S
C349        C350   1.403       .  A
C349        H360   1.084       .  S
C350        C351   1.400       .  A
C351        C352   1.409       .  A
C351        H361   1.084       .  S
C352        C353   1.407       .  A
C353        H362   1.084       .  S
C354        C355   1.408       .  A
C354        H363   1.084       .  S
C355        C356   1.406       .  A
C356        H364   1.084       .  S
C365        C366   1.398       .  A
C365        C370   1.404       .  A
C365        H381   1.084       .  S
C366        C367   1.403       .  A
C366        H382   1.083       .  S
C367        C377   1.402       .  A
C367        C368   1.412       .  A
C368        C374   1.411       .  A
C368        C369   1.412       .  A
C369        C371   1.412       .  A
C369        C370   1.409       .  A
C370        C378   1.400       .  A
C371        C380   1.405       .  A
C371        C372   1.403       .  A
C372        C373   1.400       .  A
C372        H383   1.083       .  S
C373        C374   1.404       .  A
C373        H384   1.084       .  S
C374        C375   1.405       .  A
C375        C376   1.408       .  A
C375        H385   1.084       .  S
C376        C377   1.406       .  A
C377        H386   1.084       .  S
C378        C379   1.410       .  A
C378        H387   1.084       .  S
C379        C380   1.407       .  A
C380        H388   1.084       .  S
C389        C390   1.398   1_455  A
C389        C394   1.403       .  A
C389        H405   1.084       .  S
C390        C391   1.403       .  A
C390        H406   1.084       .  S
C391        C401   1.401       .  A
C391        C392   1.412   1_554  A
C392        C398   1.412       .  A
C392        C393   1.408   1_655  A
C393        C395   1.412       .  A
C393        C394   1.412   1_556  A
C394        C402   1.400       .  A
C395        C404   1.399       .  A
C395        C396   1.403       .  A
C396        C397   1.397   1_455  A
C396        H407   1.084       .  S
C397        C398   1.403       .  A
C397        H408   1.084       .  S
C398        C399   1.399       .  A
C399        C400   1.403       .  A
C399        H409   1.085       .  S
C400        C401   1.403   1_556  A
C401        H410   1.085       .  S
C402        C403   1.403       .  A
C402        H411   1.085       .  S
C403        C404   1.404   1_554  A
C404        H412   1.085       .  S
