geometry optimzed in LAMMPS
_audit_creation_date              2020-11-30 
_audit_creation_method            'lammps2cif' 
_symmetry_space_group_name_H-M    'P1' 
_symmetry_Int_Tables_number       1 
_symmetry_cell_setting            triclinic 
loop_ 
_symmetry_equiv_pos_as_xyz 
  x,y,z 
_cell_length_a                    20.99459952 
_cell_length_b                    24.41168952387815 
_cell_length_c                    48.5824541299785 
_cell_angle_alpha                 88.3512276694023 
_cell_angle_beta                  89.35079168682546 
_cell_angle_gamma                 86.79670852486196 
loop_ 
_atom_site_label 
_atom_site_type_symbol 
_atom_site_fract_x 
_atom_site_fract_y 
_atom_site_fract_z 
_atom_site_charge 
C1          C  0.13109300  0.49544486  0.20696876    -0.02300
C2          C  0.37821888  0.50557942  0.27207773    -0.02300
O3          O  0.32270751  0.73200961  0.41607960    -0.57600
C4          C  0.48535827  0.75533793  0.42943156     0.75000
O5          O  0.34826968  0.72420570  0.34963418    -0.58800
C6          C  0.31497319  0.77298142  0.43142530     0.75000
C7          C  0.39744257  0.88882789  0.36354828     0.77400
Cd8        Cd  0.39920329  0.77738914  0.38525584     1.37500
O9          O  0.44879704  0.71957054  0.42163946    -0.57600
O10         O  0.34699626  0.86295435  0.36676181    -0.56400
C11         C  0.39902180  0.69786367  0.34217325     0.77300
O12         O  0.44956884  0.86118570  0.36790640    -0.58800
O13         O  0.49267265  0.79574423  0.41292033    -0.57300
O14         O  0.33310055  0.81810697  0.42163808    -0.57300
O15         O  0.44996829  0.71128465  0.35328045    -0.56400
O16         O  0.20099848  0.72554477  0.05584299    -0.57600
C17         C  0.04361289  0.76741718  0.04407310     0.72400
O18         O  0.07996491  0.71067537  0.12256906    -0.58800
C19         C  0.21734939  0.76930323  0.04381905     0.75000
C20         C  0.12556734  0.87792439  0.11367789     0.77400
Cd21       Cd  0.12914713  0.77292668  0.08872490     1.37500
O22         O  0.06568175  0.72379355  0.05601719    -0.57600
O23         O  0.07481080  0.85493211  0.10789382    -0.56400
C24         C  0.13218544  0.68900077  0.13155733     0.77300
O25         O  0.17732716  0.84951391  0.11030547    -0.58800
O26         O  0.04945324  0.81165626  0.05651199    -0.57300
O27         O  0.20394571  0.81340602  0.05618465    -0.57300
O28         O  0.18305663  0.70763333  0.12174846    -0.56400
O29         O  0.28077273  0.26892099  0.42111665    -0.57600
C30         C  0.44855425  0.24766659  0.43845698     0.75000
O31         O  0.43245012  0.14968642  0.37575197    -0.58800
C32         C  0.27688252  0.22533052  0.43573153     0.75000
C33         C  0.36861437  0.31575826  0.34999838     0.77400
Cd34       Cd  0.36935372  0.23060799  0.39242830     1.37500
O35         O  0.40399137  0.28186265  0.43135170    -0.57600
O36         O  0.41828620  0.30057819  0.36329465    -0.56400
C37         C  0.38496658  0.12383031  0.36845520     0.77300
O38         O  0.31891965  0.29002916  0.35524474    -0.58800
O39         O  0.46421210  0.21094304  0.42129149    -0.57300
O40         O  0.30557330  0.18269672  0.42651639    -0.57300
O41         O  0.33085823  0.14944428  0.37031917    -0.56400
O42         O  0.15568800  0.27841239  0.05997854    -0.57600
C43         C  0.02293875  0.22367923  0.05089229     0.75000
O44         O  0.16160846  0.13645985  0.11350950    -0.58800
C45         C  0.19196051  0.24004656  0.05069544     0.75000
C46         C  0.11476496  0.29956654  0.13956780     0.77400
Cd47       Cd  0.10904011  0.22136618  0.09609387     1.37500
O48         O  0.02265934  0.26404554  0.06680894    -0.57600
O49         O  0.06230012  0.28726620  0.12925546    -0.56400
C50         C  0.11111430  0.11250156  0.11971517     0.77300
O51         O  0.16440387  0.27430987  0.13027092    -0.58800
O52         O  0.05215385  0.17993128  0.05946535    -0.57300
O53         O  0.20008816  0.19746452  0.06610292    -0.57300
O54         O  0.05933140  0.14175058  0.11804182    -0.56400
C55         C  0.95203913  0.28000883  0.48453574    -0.26100
C56         C  0.47513399  0.24729923  0.46663733    -0.14200
C57         C  0.48583165  0.18920207  0.98209950     0.36400
C58         C  0.49585656  0.18998717  0.01051361    -0.25600
C59         C  0.99758503  0.22826795  0.02239869    -0.14800
C60         C  0.96369117  0.27556972  0.51300331     0.37500
N61         N  0.94044994  0.31822292  0.53092842    -0.89100
H62         H  0.92386698  0.31534472  0.47653533     0.18600
H63         H  0.50440889  0.15122979  0.02167308     0.18600
N64         N  0.48423657  0.13747157  0.96899032    -0.88100
H65         H  0.91635999  0.35005900  0.51965179     0.36000
H66         H  0.90673111  0.30156970  0.54420613     0.41100
H67         H  0.44829950  0.11533675  0.97841674     0.40700
H68         H  0.52785349  0.11571489  0.97242860     0.35600
C69         C  0.22749847  0.28728856  0.97696190    -0.26100
C70         C  0.24825936  0.22565304  0.46381810    -0.14200
C71         C  0.24212169  0.17649445  0.47947881     0.36400
C72         C  0.22901687  0.17894316  0.50784448    -0.25600
C73         C  0.21716390  0.24191483  0.02206589    -0.14800
C74         C  0.21070642  0.28973146  0.00499931     0.37500
N75         N  0.18722060  0.34093265  0.01594003    -0.89100
H76         H  0.22402786  0.32465931  0.96434926     0.18600
H77         H  0.22360665  0.14103164  0.51957083     0.18600
N78         N  0.24943059  0.12416980  0.46660810    -0.88100
H79         H  0.14643767  0.35443845  0.00495891     0.36000
H80         H  0.22185053  0.36954604  0.01251000     0.41100
H81         H  0.21225320  0.12223746  0.45260978     0.40700
H82         H  0.24417623  0.09210323  0.48107010     0.35600
C83         C  0.06416846  0.96418256  0.12590199    -0.26100
C84         C  0.12386863  0.93624804  0.12198797    -0.14200
C85         C  0.17939690  0.96668602  0.12282047     0.36400
C86         C  0.17348826  0.02367626  0.12515332    -0.25600
C87         C  0.11349607  0.05226369  0.12576119    -0.14800
C88         C  0.05822821  0.02143840  0.12757152     0.37500
N89         N  0.99523498  0.04668214  0.12993034    -0.89100
H90         H  0.02103148  0.94177666  0.12599927     0.18600
H91         H  0.21666539  0.04604626  0.12439504     0.18600
N92         N  0.24246689  0.94187986  0.11983675    -0.88100
H93         H  0.98501276  0.07050171  0.11216068     0.36000
H94         H  0.99339557  0.07160169  0.14709953     0.41100
H95         H  0.24710290  0.92456363  0.10043963     0.40700
H96         H  0.24970875  0.91145568  0.13523080     0.35600
C97         C  0.45194877  0.97727927  0.35922055    -0.26100
C98         C  0.39547992  0.94918838  0.35746524    -0.14200
C99         C  0.33708352  0.98022437  0.35372582     0.36400
C100        C  0.33555787  0.03774258  0.35546395    -0.25600
C101        C  0.39117088  0.06535502  0.36025781    -0.14800
C102        C  0.45036171  0.03484418  0.36040150     0.37500
N103        N  0.50891616  0.06173501  0.36268948    -0.89100
H104        H  0.49750529  0.95444500  0.36120039     0.18600
H105        H  0.29001644  0.06080637  0.35434717     0.18600
N106        N  0.27904331  0.95331085  0.34929455    -0.88100
H107        H  0.53747817  0.05184781  0.34557171     0.36000
H108        H  0.53244867  0.04603046  0.38030632     0.41100
H109        H  0.28365251  0.93416340  0.33034195     0.40700
H110        H  0.24027696  0.98195447  0.34751268     0.35600
C111        C  0.28055760  0.72231080  0.97440619    -0.26100
C112        C  0.29280090  0.76712406  0.46037570    -0.14200
C113        C  0.31397766  0.80184585  0.48087727     0.36400
C114        C  0.29518665  0.79324194  0.50843757    -0.25600
C115        C  0.24308890  0.76986825  0.01533319    -0.14800
C116        C  0.26697129  0.72158264  0.00274521     0.37500
N117        N  0.27817459  0.67175885  0.01866289    -0.89100
H118        H  0.30019411  0.68495370  0.96530851     0.18600
H119        H  0.30970045  0.82119875  0.52380258     0.18600
N120        N  0.35530080  0.84529611  0.47383232    -0.88100
H121        H  0.32635850  0.65916844  0.01657207     0.36000
H122        H  0.25110467  0.64172560  0.01032821     0.41100
H123        H  0.39889395  0.82713941  0.46728052     0.40700
H124        H  0.36524808  0.86755183  0.49119486     0.35600
C125        C  0.48276184  0.72417917  0.97427623    -0.26100
C126        C  0.50982635  0.75377044  0.45798971    -0.14200
C127        C  0.04996026  0.78791080  0.46347927     0.36400
C128        C  0.06549073  0.79457978  0.49117511    -0.25600
C129        C  0.02110931  0.76792642  0.01536255    -0.14800
C130        C  0.49937928  0.72432990  0.00220211     0.37500
N131        N  0.47813885  0.68250654  0.02103483    -0.89100
H132        H  0.45214348  0.69310050  0.96740063     0.18600
H133        H  0.10661451  0.81741224  0.49592044     0.18600
N134        N  0.08785680  0.81151795  0.44184920    -0.88100
H135        H  0.45247568  0.65406106  0.01067683     0.36000
H136        H  0.93776340  0.69373313  0.03491570     0.41100
H137        H  0.61559936  0.80174411  0.43618879     0.40700
H138        H  0.12474228  0.83285286  0.45005191     0.35600
C139        C  0.36598654  0.35589800  0.30217817    -0.26100
C140        C  0.36846575  0.36325457  0.33055852    -0.14200
C141        C  0.37221055  0.41648168  0.34041505     0.36400
C142        C  0.37417545  0.46124062  0.32194360    -0.25600
C143        C  0.37561905  0.45504466  0.29294123    -0.14800
C144        C  0.36997814  0.40068912  0.28339829     0.37500
N145        N  0.36907503  0.39055820  0.25451362    -0.89100
H146        H  0.36242536  0.31496615  0.29447148     0.18600
H147        H  0.37165180  0.50094763  0.33110512     0.18600
N148        N  0.37238319  0.42653192  0.36934419    -0.88100
H149        H  0.32635662  0.37261863  0.25018179     0.36000
H150        H  0.40675249  0.36233295  0.24997744     0.41100
H151        H  0.41211039  0.40525105  0.37807741     0.40700
H152        H  0.33116911  0.41125209  0.37824689     0.35600
C153        C  0.43780689  0.56466355  0.30470378    -0.26100
C154        C  0.38369453  0.56062604  0.28782363    -0.14200
C155        C  0.34091950  0.60824560  0.28586681     0.36400
C156        C  0.34763010  0.65229826  0.30351922    -0.25600
C157        C  0.39796700  0.65269408  0.32220839    -0.14800
C158        C  0.44432915  0.60842313  0.32224650     0.37500
N159        N  0.49690196  0.60484753  0.34088248    -0.89100
H160        H  0.47364893  0.53098672  0.30578995     0.18600
H161        H  0.31313724  0.68699713  0.30232315     0.18600
N162        N  0.29254633  0.61431633  0.26530555    -0.88100
H163        H  0.47913992  0.60676806  0.36104920     0.36000
H164        H  0.52553937  0.63783188  0.33679826     0.41100
H165        H  0.30126411  0.64892356  0.25295653     0.40700
H166        H  0.24849039  0.62168721  0.27517307     0.35600
C167        C  0.17212334  0.39601336  0.19384583    -0.26100
C168        C  0.12458652  0.43953960  0.19227644    -0.14200
C169        C  0.06898721  0.42988694  0.17682338     0.36400
C170        C  0.06620453  0.38258245  0.16132196    -0.25600
C171        C  0.11745204  0.34357310  0.16010729    -0.14800
C172        C  0.17019636  0.34962245  0.17746638     0.37500
N173        N  0.22250461  0.30942884  0.17915588    -0.89100
H174        H  0.21283169  0.39816668  0.20708311     0.18600
H175        H  0.02452792  0.37824459  0.14877495     0.18600
N176        N  0.01656560  0.46991540  0.17501065    -0.88100
H177        H  0.24596272  0.30788649  0.16009722     0.36000
H178        H  0.20457574  0.27117983  0.18397534     0.41100
H179        H  0.00973180  0.48159106  0.15433952     0.40700
H180        H  0.97549615  0.45147492  0.18213509     0.35600
C181        C  0.13433453  0.58935468  0.13948929    -0.26100
C182        C  0.13366413  0.64117297  0.15071664    -0.14200
C183        C  0.13638445  0.64572845  0.17942792     0.36400
C184        C  0.13710807  0.59822209  0.19638659    -0.25600
C185        C  0.13342741  0.54499750  0.18560465    -0.14800
C186        C  0.13625096  0.54145921  0.15613426     0.37500
N187        N  0.14679939  0.49054262  0.14243477    -0.89100
H188        H  0.13538517  0.58581598  0.11727970     0.18600
H189        H  0.13830261  0.60295589  0.21848450     0.18600
N190        N  0.13800978  0.69808129  0.19187049    -0.88100
H191        H  0.18948289  0.49175973  0.13118369     0.36000
H192        H  0.11009935  0.48713885  0.12831504     0.41100
H193        H  0.09734322  0.72187603  0.18583301     0.40700
H194        H  0.17811628  0.71735164  0.18428680     0.35600
C195        C  0.01921844  0.54295697  0.22017769    -0.26100
C196        C  0.06786750  0.50120636  0.22579246    -0.14200
C197        C  0.05111712  0.46100854  0.24633236     0.36400
C198        C  0.49115939  0.45957762  0.25945795    -0.25600
C199        C  0.44247917  0.50118886  0.25387253    -0.14800
C200        C  0.45978229  0.54206384  0.23383254     0.37500
N201        N  0.42112045  0.59121454  0.22797456    -0.89100
H202        H  0.02516317  0.57366905  0.20416110     0.18600
H203        H  0.48490826  0.42916188  0.27563108     0.18600
N204        N  0.09320639  0.41510546  0.25474262    -0.88100
H205        H  0.42130148  0.61678682  0.24474900     0.36000
H206        H  0.37480413  0.58271279  0.22287815     0.41100
H207        H  0.10251484  0.41877294  0.27569394     0.40700
H208        H  0.13717463  0.41471412  0.24484554     0.35600
C209        C  0.31444937  0.49554934  0.22684605    -0.26100
C210        C  0.31365958  0.50334742  0.25544613    -0.14200
C211        C  0.25135293  0.50527804  0.26820957     0.36400
C212        C  0.19552698  0.50559220  0.25231130    -0.25600
C213        C  0.19618983  0.49784400  0.22361193    -0.14800
C214        C  0.25871454  0.49546372  0.21097118     0.37500
N215        N  0.26923627  0.49583561  0.18180209    -0.89100
H216        H  0.35942840  0.49030809  0.21595874     0.18600
H217        H  0.15081043  0.51100138  0.26331490     0.18600
N218        N  0.24146754  0.50559747  0.29746677    -0.88100
H219        H  0.25400639  0.53392688  0.17327075     0.36000
H220        H  0.24713904  0.46400891  0.17272574     0.41100
H221        H  0.26626783  0.53608288  0.30645367     0.40700
H222        H  0.25506707  0.46709146  0.30597377     0.35600
C223        C  0.12838916  0.49266005  0.70610562    -0.02300
C224        C  0.37386315  0.50658237  0.77208448    -0.02300
O225        O  0.32545757  0.72944246  0.91966695    -0.57600
C226        C  0.47267124  0.76882433  0.92797134     0.75000
O227        O  0.33638493  0.72307161  0.84948998    -0.58800
C228        C  0.29653161  0.77137192  0.92950426     0.75000
C229        C  0.37803968  0.89129480  0.86217639     0.77400
Cd230      Cd  0.38289975  0.78043467  0.88421737     1.37500
O231        O  0.44771093  0.72793933  0.91804180    -0.57600
O232        O  0.32737708  0.86646149  0.86694474    -0.56400
C233        C  0.38862608  0.69955027  0.84171137     0.77300
O234        O  0.43009614  0.86253265  0.86457877    -0.58800
O235        O  0.46515592  0.81379524  0.91444213    -0.57300
O236        O  0.29663175  0.81484432  0.91470056    -0.57300
O237        O  0.43858539  0.71589238  0.85244016    -0.56400
O238        O  0.18945181  0.71396417  0.55199303    -0.57600
C239        C  0.05463788  0.77376862  0.54103006     0.72400
O240        O  0.08382169  0.70697054  0.62046365    -0.58800
C241        C  0.22684606  0.75026971  0.54419206     0.75000
C242        C  0.12630011  0.87350118  0.61314973     0.77400
Cd243      Cd  0.13596166  0.76885617  0.58747057     1.37500
O244        O  0.05074916  0.73486893  0.55878439    -0.57600
O245        O  0.07720991  0.84925564  0.60636229    -0.56400
C246        C  0.13517489  0.68474580  0.63002303     0.77300
O247        O  0.17931293  0.84701799  0.60980642    -0.58800
O248        O  0.08629911  0.81380532  0.54765888    -0.57300
O249        O  0.23188065  0.78986747  0.56026933    -0.57300
O250        O  0.18693485  0.70229568  0.62057908    -0.56400
O251        O  0.29593889  0.28180580  0.92584607    -0.57600
C252        C  0.45207615  0.24000336  0.93838038     0.75000
O253        O  0.42585435  0.15053486  0.87590608    -0.58800
C254        C  0.27704699  0.23818060  0.93708653     0.75000
C255        C  0.36836892  0.31830240  0.85070738     0.77400
Cd256      Cd  0.36829306  0.23359988  0.89319311     1.37500
O257        O  0.42237255  0.28229318  0.92838309    -0.57600
O258        O  0.41948386  0.29955661  0.86193686    -0.56400
C259        C  0.37631299  0.12613577  0.86979731     0.77300
O260        O  0.31749471  0.29604062  0.85788590    -0.58800
O261        O  0.45359360  0.19762711  0.92391489    -0.57300
O262        O  0.28919912  0.19453171  0.92417864    -0.57300
O263        O  0.32355963  0.15364164  0.87238158    -0.56400
O264        O  0.16468831  0.26970399  0.55956202    -0.57600
C265        C  0.02241306  0.22529847  0.55229011     0.75000
O266        O  0.16262064  0.13019773  0.61349050    -0.58800
C267        C  0.19587649  0.22883196  0.54981479     0.75000
C268        C  0.11546732  0.29548541  0.63943590     0.77400
Cd269      Cd  0.11195141  0.21696412  0.59594833     1.37500
O270        O  0.03428557  0.26763867  0.56536665    -0.57600
O271        O  0.06371219  0.28292697  0.62866319    -0.56400
C272        C  0.11100817  0.10740513  0.61914559     0.77300
O273        O  0.16561795  0.26994515  0.63079465    -0.58800
O274        O  0.04026096  0.17953841  0.56331860    -0.57300
O275        O  0.19907980  0.18559125  0.56490084    -0.57300
O276        O  0.06019575  0.13778815  0.61694528    -0.56400
C277        C  0.94631575  0.28014563  0.98434135    -0.26100
C278        C  0.47640571  0.23905522  0.96688115    -0.14200
C279        C  0.52640870  0.21084670  0.47451898     0.36400
C280        C  0.54144139  0.20336598  0.50239630    -0.25600
C281        C  0.99816534  0.22871589  0.52378661    -0.14800
C282        C  0.96119356  0.27500463  0.01252734     0.37500
N283        N  0.93917716  0.31694739  0.03108226    -0.89100
H284        H  0.91714001  0.31555147  0.97711435     0.18600
H285        H  0.58136447  0.17526836  0.50793340     0.18600
N286        N  0.56367719  0.18132890  0.45434686    -0.88100
H287        H  0.91409456  0.34907912  0.02041858     0.36000
H288        H  0.90657123  0.29968360  0.04468534     0.41100
H289        H  0.56133171  0.13936153  0.45888848     0.40700
H290        H  0.61118034  0.19141157  0.45621772     0.35600
C291        C  0.23818234  0.27612476  0.47685338    -0.26100
C292        C  0.24944531  0.23766060  0.96529174    -0.14200
C293        C  0.25487149  0.18974630  0.98229954     0.36400
C294        C  0.23911484  0.19240560  0.01032861    -0.25600
C295        C  0.22013719  0.22933752  0.52100408    -0.14800
C296        C  0.22410579  0.27856191  0.50518523     0.37500
N297        N  0.21410928  0.33086685  0.51787321    -0.89100
H298        H  0.24368433  0.31401868  0.46512914     0.18600
H299        H  0.24297759  0.15490503  0.02283125     0.18600
N300        N  0.27828443  0.13837355  0.97149675    -0.88100
H301        H  0.21709314  0.36292630  0.50325157     0.36000
H302        H  0.25133467  0.33463509  0.53168387     0.41100
H303        H  0.24360253  0.10981114  0.97502895     0.40700
H304        H  0.31913495  0.12495022  0.98242916     0.35600
C305        C  0.06148999  0.95987107  0.62170247    -0.26100
C306        C  0.12153392  0.93132332  0.62226422    -0.14200
C307        C  0.17576123  0.96088347  0.62820401     0.36400
C308        C  0.16973205  0.01811027  0.62979549    -0.25600
C309        C  0.11090234  0.04732230  0.62550040    -0.14800
C310        C  0.05550896  0.01712011  0.62315485     0.37500
N311        N  0.99285278  0.04305457  0.62070936    -0.89100
H312        H  0.01886869  0.93806883  0.61820690     0.18600
H313        H  0.21248909  0.04009631  0.63267944     0.18600
N314        N  0.23799990  0.93468892  0.63181548    -0.88100
H315        H  0.99056180  0.06723763  0.60261761     0.36000
H316        H  0.98392565  0.06769686  0.63772796     0.41100
H317        H  0.25365408  0.91776020  0.61326327     0.40700
H318        H  0.23536505  0.90372703  0.64704654     0.35600
C319        C  0.43530485  0.97768365  0.85918594    -0.26100
C320        C  0.37752744  0.95181852  0.85697295    -0.14200
C321        C  0.32027621  0.98492394  0.85429626     0.36400
C322        C  0.32168481  0.04224881  0.85682254    -0.25600
C323        C  0.37896048  0.06748508  0.86177644    -0.14800
C324        C  0.43657746  0.03469633  0.86183673     0.37500
N325        N  0.49650659  0.05844030  0.86588798    -0.89100
H326        H  0.47988615  0.95325724  0.86077116     0.18600
H327        H  0.27724413  0.06700797  0.85610602     0.18600
N328        N  0.26066828  0.96033560  0.85001861    -0.88100
H329        H  0.52610790  0.04896289  0.84905041     0.36000
H330        H  0.51746264  0.03993837  0.88351569     0.41100
H331        H  0.26338504  0.94220064  0.83077429     0.40700
H332        H  0.22313582  0.99033212  0.84896013     0.35600
C333        C  0.25704917  0.72245705  0.46836854    -0.26100
C334        C  0.27106978  0.77060352  0.95810875    -0.14200
C335        C  0.24752270  0.81906958  0.97080698     0.36400
C336        C  0.23391410  0.81823421  0.99912860    -0.25600
C337        C  0.25669258  0.75019739  0.51628563    -0.14800
C338        C  0.23867584  0.71377220  0.49596017     0.37500
N339        N  0.20016019  0.66870802  0.50296046    -0.89100
H340        H  0.24253314  0.69435306  0.45305763     0.18600
H341        H  0.21429262  0.85555160  0.00828607     0.18600
N342        N  0.23793223  0.86951395  0.95521569    -0.88100
H343        H  0.22500955  0.63250201  0.49712336     0.36000
H344        H  0.15828617  0.67329274  0.49146412     0.41100
H345        H  0.26584477  0.89866546  0.96381403     0.40700
H346        H  0.19007219  0.88313942  0.95726108     0.35600
C347        C  0.48043711  0.71987641  0.47781556    -0.26100
C348        C  0.50215694  0.76516128  0.95552693    -0.14200
C349        C  0.02795112  0.81110707  0.96935494     0.36400
C350        C  0.03809786  0.81163099  0.99785395    -0.25600
C351        C  0.03045304  0.77043733  0.51273267    -0.14800
C352        C  0.48926440  0.72623398  0.50617803     0.37500
N353        N  0.45635961  0.69312988  0.52607033    -0.89100
H354        H  0.44750585  0.69030569  0.47128599     0.18600
H355        H  0.06168265  0.84566251  0.00632592     0.18600
N356        N  0.04653064  0.85635123  0.95203521    -0.88100
H357        H  0.42843079  0.66558137  0.51622745     0.36000
H358        H  0.91943893  0.74626150  0.53922879     0.41100
H359        H  0.59481314  0.82549012  0.93155183     0.40700
H360        H  0.06568101  0.88661889  0.96373611     0.35600
C361        C  0.36842297  0.35732261  0.80288852    -0.26100
C362        C  0.36790766  0.36557237  0.83120531    -0.14200
C363        C  0.36645245  0.41934383  0.84083837     0.36400
C364        C  0.36839650  0.46378042  0.82214620    -0.25600
C365        C  0.37205245  0.45669659  0.79322243    -0.14800
C366        C  0.36967318  0.40189389  0.78392741     0.37500
N367        N  0.36977907  0.39112857  0.75509595    -0.89100
H368        H  0.36819823  0.31595115  0.79538946     0.18600
H369        H  0.36366284  0.50388232  0.83091815     0.18600
N370        N  0.36139243  0.43011416  0.86965383    -0.88100
H371        H  0.32840285  0.37113259  0.75080294     0.36000
H372        H  0.40907467  0.36447734  0.75073189     0.41100
H373        H  0.40045817  0.41033376  0.87963483     0.40700
H374        H  0.31976697  0.41343637  0.87737331     0.35600
C375        C  0.43240881  0.56740443  0.80417847    -0.26100
C376        C  0.37805874  0.56196814  0.78755892    -0.14200
C377        C  0.33385625  0.60856234  0.78565352     0.36400
C378        C  0.33943796  0.65279998  0.80320267    -0.25600
C379        C  0.39004833  0.65462922  0.82161392    -0.14800
C380        C  0.43842150  0.61199040  0.82124980     0.37500
N381        N  0.49276014  0.61107418  0.83886996    -0.89100
H382        H  0.46927648  0.53455143  0.80520624     0.18600
H383        H  0.30363084  0.68652862  0.80219975     0.18600
N384        N  0.28470775  0.61330662  0.76542042    -0.88100
H385        H  0.47691561  0.61253876  0.85932343     0.36000
H386        H  0.51870024  0.64548239  0.83414330     0.41100
H387        H  0.29190271  0.64805404  0.75294206     0.40700
H388        H  0.24083973  0.61975360  0.77558143     0.35600
C389        C  0.16966787  0.39299941  0.69377136    -0.26100
C390        C  0.12237431  0.43659377  0.69155565    -0.14200
C391        C  0.06751896  0.42679488  0.67566876     0.36400
C392        C  0.06558566  0.37927778  0.66021386    -0.25600
C393        C  0.11679577  0.34002086  0.65975247    -0.14800
C394        C  0.16835115  0.34617351  0.67771082     0.37500
N395        N  0.21996747  0.30552271  0.68041040    -0.89100
H396        H  0.20968697  0.39533762  0.70737836     0.18600
H397        H  0.02467567  0.37482299  0.64722040     0.18600
N398        N  0.01519912  0.46687242  0.67340307    -0.88100
H399        H  0.24488868  0.30314826  0.66172214     0.36000
H400        H  0.20113833  0.26762271  0.68523635     0.41100
H401        H  0.00922176  0.47838031  0.65266200     0.40700
H402        H  0.97383974  0.44851339  0.68023496     0.35600
C403        C  0.13547855  0.58548341  0.63835749    -0.26100
C404        C  0.13472364  0.63742016  0.64939312    -0.14200
C405        C  0.13551443  0.64251252  0.67811210     0.36400
C406        C  0.13481108  0.59530499  0.69523671    -0.25600
C407        C  0.13136282  0.54192505  0.68460074    -0.14800
C408        C  0.13575836  0.53790052  0.65516574     0.37500
N409        N  0.14662177  0.48674802  0.64171232    -0.89100
H410        H  0.13795534  0.58157338  0.61617838     0.18600
H411        H  0.13490781  0.60039057  0.71732523     0.18600
N412        N  0.13662525  0.69507740  0.69038623    -0.88100
H413        H  0.18990723  0.48751650  0.63087713     0.36000
H414        H  0.11065576  0.48341832  0.62723634     0.41100
H415        H  0.09646293  0.71892678  0.68380118     0.40700
H416        H  0.17727647  0.71407451  0.68320619     0.35600
C417        C  0.01642881  0.54064104  0.71911410    -0.26100
C418        C  0.06469088  0.49858545  0.72474525    -0.14200
C419        C  0.04730370  0.45844461  0.74525038     0.36400
C420        C  0.48796240  0.46198317  0.76030861    -0.25600
C421        C  0.43850849  0.50266253  0.75423068    -0.14800
C422        C  0.45533224  0.54346147  0.73414123     0.37500
N423        N  0.41615470  0.59230152  0.72820043    -0.89100
H424        H  0.02269811  0.57116048  0.70303211     0.18600
H425        H  0.48241721  0.43217227  0.77681293     0.18600
N426        N  0.08892733  0.41225192  0.75367432    -0.88100
H427        H  0.41637161  0.61814884  0.74488282     0.36000
H428        H  0.36981952  0.58335365  0.72337905     0.41100
H429        H  0.09744887  0.41542172  0.77472188     0.40700
H430        H  0.13334050  0.41224543  0.74418904     0.35600
C431        C  0.31144237  0.49466825  0.72660130    -0.26100
C432        C  0.30983538  0.50284071  0.75517758    -0.14200
C433        C  0.24726792  0.50371969  0.76767238     0.36400
C434        C  0.19186763  0.50331505  0.75157360    -0.25600
C435        C  0.19322868  0.49535008  0.72291864    -0.14800
C436        C  0.25610894  0.49315441  0.71052936     0.37500
N437        N  0.26743395  0.49217137  0.68142808    -0.89100
H438        H  0.35673806  0.49010855  0.71590223     0.18600
H439        H  0.14690071  0.50824322  0.76241829     0.18600
N440        N  0.23665806  0.50372151  0.79687357    -0.88100
H441        H  0.25232615  0.52978957  0.67236299     0.36000
H442        H  0.24598308  0.45967958  0.67262823     0.41100
H443        H  0.26080123  0.53440348  0.80603368     0.40700
H444        H  0.25049793  0.46520829  0.80531836     0.35600
C445        C  0.63011564  0.48990605  0.20581651    -0.02300
C446        C  0.87626198  0.50894845  0.27087400    -0.02300
O447        O  0.80944247  0.73568044  0.41709867    -0.57600
C448        C  0.96966630  0.75871082  0.42918729     0.75000
O449        O  0.83558982  0.72587359  0.34856094    -0.58800
C450        C  0.79529301  0.77900538  0.43011690     0.75000
C451        C  0.88197566  0.89195762  0.36447856     0.77400
Cd452      Cd  0.88340594  0.78009381  0.38485026     1.37500
O453        O  0.92808948  0.72569338  0.42319944    -0.57600
O454        O  0.83196551  0.86505605  0.36503081    -0.56400
C455        C  0.88758717  0.70149667  0.34111085     0.77300
O456        O  0.93362961  0.86499686  0.37049984    -0.58800
O457        O  0.98045738  0.79604255  0.41129236    -0.57300
O458        O  0.81034331  0.82345305  0.41843035    -0.57300
O459        O  0.93726552  0.71595804  0.35280106    -0.56400
O460        O  0.71316326  0.71597310  0.05510454    -0.57600
C461        C  0.55996957  0.76652423  0.04014106     0.72400
O462        O  0.58938444  0.69472294  0.11408359    -0.58800
C463        C  0.73397194  0.75926900  0.04426447     0.75000
C464        C  0.62953903  0.86963634  0.11300746     0.77400
Cd465      Cd  0.64097557  0.76606875  0.08690273     1.37500
O466        O  0.57278663  0.72250845  0.05387880    -0.57600
O467        O  0.58064888  0.84449464  0.10664395    -0.56400
C468        C  0.63690302  0.68128283  0.12911501     0.77300
O469        O  0.68294400  0.84372443  0.10977535    -0.58800
O470        O  0.57421722  0.81059454  0.05103429    -0.57300
O471        O  0.72440990  0.80260255  0.05770008    -0.57300
O472        O  0.68638011  0.70814475  0.12540346    -0.56400
O473        O  0.80055775  0.28330954  0.42588338    -0.57600
C474        C  0.95155231  0.24134378  0.43769680     0.75000
O475        O  0.92483586  0.15333508  0.37407521    -0.58800
C476        C  0.78071396  0.23941333  0.43648501     0.75000
C477        C  0.87036344  0.31994167  0.34916950     0.77400
Cd478      Cd  0.86908621  0.23575713  0.39188496     1.37500
O479        O  0.91974345  0.28313490  0.42838312    -0.57600
O480        O  0.92144997  0.29857850  0.35936060    -0.56400
C481        C  0.87517256  0.12790708  0.36938395     0.77300
O482        O  0.81861609  0.30060613  0.35753424    -0.58800
O483        O  0.95632436  0.20039255  0.42220886    -0.57300
O484        O  0.78926183  0.19674443  0.42241766    -0.57300
O485        O  0.82219283  0.15476952  0.37270098    -0.56400
O486        O  0.68322398  0.25807263  0.06168534    -0.57600
C487        C  0.52283245  0.23715640  0.05265369     0.75000
O488        O  0.66315247  0.12820005  0.11239791    -0.58800
C489        C  0.69447580  0.21513517  0.04803170     0.75000
C490        C  0.61828198  0.29174742  0.13943625     0.77400
Cd491      Cd  0.61223193  0.21467877  0.09521762     1.37500
O492        O  0.55643529  0.27435671  0.06123662    -0.57600
O493        O  0.56612273  0.27932870  0.12898125    -0.56400
C494        C  0.61159604  0.10434577  0.11665437     0.77300
O495        O  0.66801000  0.26617907  0.13035761    -0.58800
O496        O  0.51928183  0.19450869  0.06799191    -0.57300
O497        O  0.67885409  0.17063954  0.05947520    -0.57300
O498        O  0.56037193  0.13390748  0.11368935    -0.56400
C499        C  0.44224700  0.27798710  0.48706626    -0.26100
C500        C  0.97445742  0.23883217  0.46650853    -0.14200
C501        C  0.00345707  0.19324035  0.97555940     0.36400
C502        C  0.01831133  0.18801969  0.00361271    -0.25600
C503        C  0.49809373  0.23960847  0.02427135    -0.14800
C504        C  0.45826722  0.27134729  0.51510956     0.37500
N505        N  0.42417865  0.30305756  0.53557004    -0.89100
H506        H  0.40238364  0.30592222  0.48131330     0.18600
H507        H  0.04762116  0.15245165  0.01055626     0.18600
N508        N  0.02557772  0.15093642  0.95736583    -0.88100
H509        H  0.38992837  0.33020123  0.52632006     0.36000
H510        H  0.39929284  0.27590011  0.54810934     0.41100
H511        H  0.00766757  0.11394911  0.96449091     0.40700
H512        H  0.07535639  0.14704622  0.95837471     0.35600
C513        C  0.74792405  0.26936270  0.97803124    -0.26100
C514        C  0.75651282  0.23713729  0.46522041    -0.14200
C515        C  0.76529961  0.18861874  0.48160154     0.36400
C516        C  0.75127243  0.18937394  0.50986775    -0.25600
C517        C  0.71735370  0.21730063  0.01903167    -0.14800
C518        C  0.73689647  0.26644038  0.00649528     0.37500
N519        N  0.74617652  0.31358420  0.02254816    -0.89100
H520        H  0.76486578  0.30708139  0.96905319     0.18600
H521        H  0.75726570  0.15134314  0.52184875     0.18600
N522        N  0.79051851  0.13865554  0.46987834    -0.88100
H523        H  0.71603891  0.34593845  0.01496755     0.36000
H524        H  0.79329102  0.32451393  0.01965083     0.41100
H525        H  0.75769605  0.10855669  0.47347306     0.40700
H526        H  0.83269512  0.12629699  0.48013746     0.35600
C527        C  0.56400117  0.95608492  0.11971457    -0.26100
C528        C  0.62417974  0.92798145  0.12123281    -0.14200
C529        C  0.67803575  0.95844622  0.12670310     0.36400
C530        C  0.67125210  0.01572027  0.12758691    -0.25600
C531        C  0.61223873  0.04419725  0.12269513    -0.14800
C532        C  0.55742655  0.01339021  0.12003448     0.37500
N533        N  0.49484906  0.03863359  0.11606734    -0.89100
H534        H  0.52178949  0.93374917  0.11620626     0.18600
H535        H  0.71362347  0.03823916  0.13045221     0.18600
N536        N  0.74066653  0.93314176  0.13050113    -0.88100
H537        H  0.49424143  0.06176633  0.09762726     0.36000
H538        H  0.48373897  0.06415198  0.13255755     0.41100
H539        H  0.75645212  0.91548976  0.11213744     0.40700
H540        H  0.73866817  0.90287707  0.14610683     0.35600
C541        C  0.93715290  0.97974455  0.36055704    -0.26100
C542        C  0.88002078  0.95254637  0.35948592    -0.14200
C543        C  0.82183434  0.98443538  0.35765523     0.36400
C544        C  0.82162456  0.04190671  0.35907953    -0.25600
C545        C  0.87848735  0.06875687  0.36235410    -0.14800
C546        C  0.93695855  0.03711318  0.36208132     0.37500
N547        N  0.99639150  0.06257515  0.36453682    -0.89100
H548        H  0.98245218  0.95627407  0.36167961     0.18600
H549        H  0.77620750  0.06529009  0.35892861     0.18600
N550        N  0.76243588  0.95876416  0.35557423    -0.88100
H551        H  0.02470222  0.05253727  0.34737537     0.36000
H552        H  0.01944880  0.04598483  0.38209778     0.41100
H553        H  0.73963969  0.97418456  0.33773398     0.40700
H554        H  0.73386157  0.96997936  0.37249533     0.35600
C555        C  0.78242347  0.71770307  0.97193281    -0.26100
C556        C  0.77052174  0.77692976  0.45891649    -0.14200
C557        C  0.75944211  0.82496208  0.47421549     0.36400
C558        C  0.74648431  0.82082777  0.50260549    -0.25600
C559        C  0.75910861  0.76128952  0.01565674    -0.14800
C560        C  0.77150354  0.71343310  0.00046630     0.37500
N561        N  0.77337850  0.66035873  0.01387053    -0.89100
H562        H  0.79315738  0.68046200  0.96077159     0.18600
H563        H  0.73637044  0.85824665  0.51370171     0.18600
N564        N  0.76180624  0.87821588  0.46117772    -0.88100
H565        H  0.81839875  0.64120745  0.01029924     0.36000
H566        H  0.73938297  0.63719251  0.00473326     0.41100
H567        H  0.79690092  0.89931996  0.47085668     0.40700
H568        H  0.71788251  0.89952295  0.46436010     0.35600
C569        C  0.98236890  0.72214926  0.97559460    -0.26100
C570        C  0.99713439  0.75755509  0.45716082    -0.14200
C571        C  0.55126707  0.79308556  0.46688493     0.36400
C572        C  0.56012460  0.79921577  0.49518582    -0.25600
C573        C  0.53606528  0.76646693  0.01163641    -0.14800
C574        C  0.99280877  0.72273431  0.00414809     0.37500
N575        N  0.97382290  0.67815741  0.02180726    -0.89100
H576        H  0.95869949  0.68807794  0.96724108     0.18600
H577        H  0.59277191  0.82892246  0.50185778     0.18600
N578        N  0.58351961  0.82723105  0.44724285    -0.88100
H579        H  0.95372095  0.64806822  0.01031425     0.36000
H580        H  0.44639809  0.70150865  0.03499901     0.41100
H581        H  0.10963508  0.77911831  0.43094206     0.40700
H582        H  0.61070172  0.85509337  0.45723645     0.35600
C583        C  0.86941176  0.35946799  0.30140221    -0.26100
C584        C  0.87106173  0.36726284  0.32972766    -0.14200
C585        C  0.87277975  0.42073605  0.33951001     0.36400
C586        C  0.87358637  0.46546447  0.32094114    -0.25600
C587        C  0.87479868  0.45886975  0.29196779    -0.14800
C588        C  0.87108917  0.40421282  0.28255598     0.37500
N589        N  0.87013493  0.39375719  0.25370362    -0.89100
H590        H  0.86732401  0.31830917  0.29379744     0.18600
H591        H  0.87041602  0.50533535  0.32994988     0.18600
N592        N  0.87261041  0.43089822  0.36842675    -0.88100
H593        H  0.82821305  0.37440715  0.24957521     0.36000
H594        H  0.90884681  0.36667438  0.24907061     0.41100
H595        H  0.91254877  0.40993604  0.37717234     0.40700
H596        H  0.83164334  0.41509811  0.37729219     0.35600
C597        C  0.93370544  0.57087686  0.30278655    -0.26100
C598        C  0.87949740  0.56455817  0.28628225    -0.14200
C599        C  0.83480069  0.61085143  0.28419066     0.36400
C600        C  0.83895951  0.65490380  0.30206337    -0.25600
C601        C  0.88939432  0.65719338  0.32059277    -0.14800
C602        C  0.93886228  0.61550273  0.31985976     0.37500
N603        N  0.99394427  0.61570684  0.33698360    -0.89100
H604        H  0.97131527  0.53865078  0.30371390     0.18600
H605        H  0.80253307  0.68814714  0.30111257     0.18600
N606        N  0.78694721  0.61553518  0.26336600    -0.88100
H607        H  0.97919083  0.61633336  0.35759563     0.36000
H608        H  0.01858279  0.65079137  0.33208798     0.41100
H609        H  0.79464572  0.65049253  0.25110831     0.40700
H610        H  0.74238595  0.62156263  0.27298464     0.35600
C611        C  0.67411253  0.39129741  0.19274987    -0.26100
C612        C  0.62472265  0.43327371  0.19159809    -0.14200
C613        C  0.56883191  0.42149555  0.17682168     0.36400
C614        C  0.56721542  0.37356510  0.16164502    -0.25600
C615        C  0.62019363  0.33629070  0.15982994    -0.14800
C616        C  0.67373195  0.34483161  0.17632741     0.37500
N617        N  0.72884554  0.30750864  0.17683300    -0.89100
H618        H  0.71534750  0.39504074  0.20549574     0.18600
H619        H  0.52497731  0.36750256  0.14972862     0.18600
N620        N  0.51482083  0.45997338  0.17533645    -0.88100
H621        H  0.75016124  0.30750900  0.15729686     0.36000
H622        H  0.71441847  0.26815887  0.18191537     0.41100
H623        H  0.50649245  0.47095898  0.15467836     0.40700
H624        H  0.47495579  0.44042433  0.18298019     0.35600
C625        C  0.63362599  0.58198145  0.13767222    -0.26100
C626        C  0.63564273  0.63397683  0.14855342    -0.14200
C627        C  0.63750540  0.63920602  0.17724655     0.36400
C628        C  0.63594617  0.59226654  0.19447501    -0.25600
C629        C  0.63148331  0.53882333  0.18405349    -0.14800
C630        C  0.63382903  0.53451199  0.15461321     0.37500
N631        N  0.64231484  0.48311778  0.14121298    -0.89100
H632        H  0.63467958  0.57785340  0.11549545     0.18600
H633        H  0.63672380  0.59762464  0.21653418     0.18600
N634        N  0.63917073  0.69179065  0.18945445    -0.88100
H635        H  0.68503773  0.48279712  0.12992718     0.36000
H636        H  0.60524118  0.48040427  0.12720332     0.41100
H637        H  0.59919997  0.71589082  0.18285414     0.40700
H638        H  0.68005438  0.71046170  0.18232492     0.35600
C639        C  0.51854075  0.53751677  0.21950330    -0.26100
C640        C  0.56714889  0.49567305  0.22486207    -0.14200
C641        C  0.55112476  0.45589797  0.24576863     0.36400
C642        C  0.99049721  0.46415171  0.25937433    -0.25600
C643        C  0.94135008  0.50512174  0.25321836    -0.14800
C644        C  0.95925494  0.54641045  0.23357304     0.37500
N645        N  0.91989221  0.59495146  0.22727690    -0.89100
H646        H  0.52391063  0.56785494  0.20324752     0.18600
H647        H  0.98418058  0.43366490  0.27548469     0.18600
N648        N  0.59353008  0.41009293  0.25399938    -0.88100
H649        H  0.91874831  0.62077057  0.24398978     0.36000
H650        H  0.87403737  0.58547550  0.22193949     0.41100
H651        H  0.60358971  0.41398450  0.27486122     0.40700
H652        H  0.63722188  0.40984275  0.24384169     0.35600
C653        C  0.81345233  0.49690150  0.22543422    -0.26100
C654        C  0.81218062  0.50486381  0.25404336    -0.14200
C655        C  0.74987180  0.50493378  0.26676941     0.36400
C656        C  0.69433399  0.50268120  0.25092003    -0.25600
C657        C  0.69529925  0.49410325  0.22230441    -0.14800
C658        C  0.75784313  0.49369947  0.20960588     0.37500
N659        N  0.76830741  0.49323062  0.18041937    -0.89100
H660        H  0.85866016  0.49357253  0.21458663     0.18600
H661        H  0.64959263  0.50695902  0.26196638     0.18600
N662        N  0.73966843  0.50586955  0.29600310    -0.88100
H663        H  0.75192922  0.53067744  0.17154312     0.36000
H664        H  0.74712328  0.46061002  0.17159897     0.41100
H665        H  0.76292952  0.53745015  0.30482502     0.40700
H666        H  0.75452667  0.46797055  0.30484624     0.35600
C667        C  0.62620594  0.49252631  0.70656044    -0.02300
C668        C  0.87390211  0.50893387  0.77062374    -0.02300
O669        O  0.82442684  0.72959103  0.91661021    -0.57600
C670        C  0.97587103  0.76800527  0.92920980     0.75000
O671        O  0.84097314  0.72623759  0.84851393    -0.58800
C672        C  0.80441452  0.77211930  0.92905091     0.75000
C673        C  0.88862116  0.89073360  0.86160765     0.77400
Cd674      Cd  0.89046166  0.78062374  0.88392646     1.37500
O675        O  0.95298161  0.72668448  0.91866538    -0.57600
O676        O  0.83745028  0.86611512  0.86549312    -0.56400
C677        C  0.89244115  0.70179717  0.84046063     0.77300
O678        O  0.94042102  0.86214229  0.86521608    -0.58800
O679        O  0.97095313  0.81234271  0.91505439    -0.57300
O680        O  0.81182851  0.81749842  0.91656099    -0.57300
O681        O  0.94311017  0.71645836  0.85136838    -0.56400
O682        O  0.69722976  0.72443696  0.55577480    -0.57600
C683        C  0.54796225  0.77070158  0.54395288     0.72400
O684        O  0.57614717  0.70754725  0.62084987    -0.58800
C685        C  0.71906911  0.76752203  0.54516072     0.75000
C686        C  0.62377385  0.87488987  0.61798275     0.77400
Cd687      Cd  0.62917383  0.77280727  0.58989349     1.37500
O688        O  0.55441898  0.72886841  0.55992984    -0.57600
O689        O  0.57348964  0.85516038  0.60909679    -0.56400
C690        C  0.62734185  0.68489942  0.63039842     0.77300
O691        O  0.67427896  0.84411360  0.61665161    -0.58800
O692        O  0.56614246  0.81534491  0.55287353    -0.57300
O693        O  0.71135080  0.81034917  0.55917287    -0.57300
O694        O  0.67931944  0.70376266  0.62191728    -0.56400
O695        O  0.77745321  0.27179976  0.92111491    -0.57600
C696        C  0.93982950  0.24217861  0.93738258     0.75000
O697        O  0.92329036  0.15177620  0.87483950    -0.58800
C698        C  0.76658874  0.22640733  0.93304145     0.75000
C699        C  0.86148302  0.31968017  0.84894826     0.77400
Cd700      Cd  0.85995102  0.23229482  0.89054305     1.37500
O701        O  0.89860104  0.27945754  0.93029620    -0.57600
O702        O  0.91025247  0.30409694  0.86275073    -0.56400
C703        C  0.87656694  0.12572723  0.86687329     0.77300
O704        O  0.81178337  0.29339559  0.85323379    -0.58800
O705        O  0.95218743  0.20526318  0.91997225    -0.57300
O706        O  0.78710323  0.18363124  0.92100829    -0.57300
O707        O  0.82238317  0.15156163  0.86735940    -0.56400
O708        O  0.67307263  0.27375887  0.56230501    -0.57600
C709        C  0.53118826  0.22547178  0.55141960     0.75000
O710        O  0.66764911  0.13259680  0.61626690    -0.58800
C711        C  0.70327311  0.23381793  0.55118721     0.75000
C712        C  0.61989702  0.29548570  0.63973306     0.77400
Cd713      Cd  0.61759485  0.21721057  0.59631431     1.37500
O714        O  0.53134672  0.26458188  0.56805035    -0.57600
O715        O  0.56835714  0.28145483  0.62928141    -0.56400
C716        C  0.61630535  0.10888887  0.62119190     0.77300
O717        O  0.67077022  0.27197716  0.63050337    -0.58800
O718        O  0.55947042  0.18071484  0.55912460    -0.57300
O719        O  0.70489891  0.18863120  0.56474204    -0.57300
O720        O  0.56507103  0.13786787  0.61719624    -0.56400
C721        C  0.47869582  0.28880582  0.98062168    -0.26100
C722        C  0.96649599  0.23950768  0.96565409    -0.14200
C723        C  0.00938211  0.19241484  0.47743037     0.36400
C724        C  0.02006292  0.18749505  0.50581310    -0.25600
C725        C  0.50752367  0.23259917  0.52290358    -0.14800
C726        C  0.48954306  0.28964910  0.00911410     0.37500
N727        N  0.49172845  0.34107321  0.02266322    -0.89100
H728        H  0.47058780  0.32729315  0.96920146     0.18600
H729        H  0.04832721  0.15202108  0.51363029     0.18600
N730        N  0.03494768  0.15034854  0.45983638    -0.88100
H731        H  0.48562161  0.37395591  0.00850445     0.36000
H732        H  0.45291852  0.34395466  0.03633339     0.41100
H733        H  0.01650878  0.11315828  0.46636136     0.40700
H734        H  0.08439522  0.14689020  0.46238491     0.35600
C735        C  0.73478497  0.28575940  0.47784572    -0.26100
C736        C  0.74069766  0.22391053  0.96148552    -0.14200
C737        C  0.72090241  0.17454853  0.97386427     0.36400
C738        C  0.70974615  0.17173542  0.00247879    -0.25600
C739        C  0.72839278  0.23771699  0.52250435    -0.14800
C740        C  0.72029239  0.28645379  0.50614397     0.37500
N741        N  0.69668419  0.33675788  0.51798538    -0.89100
H742        H  0.72937250  0.32367858  0.46573111     0.18600
H743        H  0.69323580  0.13411866  0.01173316     0.18600
N744        N  0.71218008  0.12755568  0.95741465    -0.88100
H745        H  0.65482675  0.35012318  0.50775060     0.36000
H746        H  0.73045865  0.36608021  0.51439632     0.41100
H747        H  0.67461535  0.13781989  0.94395857     0.40700
H748        H  0.69806331  0.09442058  0.96972279     0.35600
C749        C  0.56557378  0.96199857  0.63163957    -0.26100
C750        C  0.62409487  0.93274976  0.62686299    -0.14200
C751        C  0.68056200  0.96208156  0.62614269     0.36400
C752        C  0.67650870  0.01925151  0.62746834    -0.25600
C753        C  0.61737290  0.04908036  0.62847784    -0.14800
C754        C  0.56140476  0.01953734  0.63218767     0.37500
N755        N  0.49941049  0.04632713  0.63536696    -0.89100
H756        H  0.52191632  0.94033639  0.63299033     0.18600
H757        H  0.72025565  0.04059837  0.62528667     0.18600
N758        N  0.74257214  0.93592863  0.62195442    -0.88100
H759        H  0.48746164  0.06831926  0.61722761     0.36000
H760        H  0.50058103  0.07324927  0.65168560     0.41100
H761        H  0.74405352  0.91732817  0.60282564     0.40700
H762        H  0.75124876  0.90639164  0.63765920     0.35600
C763        C  0.94338059  0.97831032  0.86186572    -0.26100
C764        C  0.88829220  0.95095486  0.85595682    -0.14200
C765        C  0.83210197  0.98241308  0.84871143     0.36400
C766        C  0.83018260  0.03994617  0.85093914    -0.25600
C767        C  0.88388069  0.06691790  0.85936490    -0.14800
C768        C  0.94184080  0.03563253  0.86348457     0.37500
N769        N  0.99889835  0.06139478  0.87048739    -0.89100
H770        H  0.98735952  0.95500534  0.86690026     0.18600
H771        H  0.78584902  0.06355228  0.84695631     0.18600
N772        N  0.77690979  0.95588913  0.83968586    -0.88100
H773        H  0.03377047  0.05135334  0.85566723     0.36000
H774        H  0.01467080  0.04498762  0.88950142     0.41100
H775        H  0.78920462  0.93698350  0.82117188     0.40700
H776        H  0.73963941  0.98486099  0.83518380     0.35600
C777        C  0.76865845  0.72568343  0.47279167    -0.26100
C778        C  0.78145505  0.76907876  0.95801536    -0.14200
C779        C  0.76963193  0.81695670  0.97333886     0.36400
C780        C  0.75889548  0.81260073  0.00179311    -0.25600
C781        C  0.74437607  0.76955464  0.51644280    -0.14800
C782        C  0.75607922  0.72160206  0.50121714     0.37500
N783        N  0.75568053  0.66848234  0.51449233    -0.89100
H784        H  0.77885324  0.68825336  0.46171900     0.18600
H785        H  0.74822468  0.84992714  0.01290090     0.18600
N786        N  0.76899202  0.87035722  0.96027359    -0.88100
H787        H  0.80023475  0.64825815  0.51124495     0.36000
H788        H  0.72131718  0.64627982  0.50499005     0.41100
H789        H  0.80372257  0.89261421  0.96951044     0.40700
H790        H  0.72446130  0.89027491  0.96395985     0.35600
C791        C  0.96282602  0.73256437  0.47876583    -0.26100
C792        C  0.99925421  0.76601398  0.95798508    -0.14200
C793        C  0.54131295  0.80583403  0.96472255     0.36400
C794        C  0.55725375  0.80637771  0.99271947    -0.25600
C795        C  0.52925398  0.76655670  0.51492739    -0.14800
C796        C  0.97877678  0.73885979  0.50646086     0.37500
N797        N  0.94187887  0.71438493  0.52817042    -0.89100
H798        H  0.92150527  0.70990672  0.47414579     0.18600
H799        H  0.58784755  0.83740582  0.99968394     0.18600
N800        N  0.56491015  0.84621357  0.94565012    -0.88100
H801        H  0.90555726  0.69233518  0.52002675     0.36000
H802        H  0.42478921  0.71936504  0.53696193     0.41100
H803        H  0.08308770  0.84152682  0.93898233     0.40700
H804        H  0.59320859  0.87309369  0.95575444     0.35600
C805        C  0.85869391  0.36009950  0.80125731    -0.26100
C806        C  0.86258888  0.36740076  0.82958573    -0.14200
C807        C  0.86896607  0.42050505  0.83929731     0.36400
C808        C  0.87197256  0.46510649  0.82070253    -0.25600
C809        C  0.87146614  0.45875549  0.79171849    -0.14800
C810        C  0.86380598  0.40451705  0.78236937     0.37500
N811        N  0.86167230  0.39411273  0.75353594    -0.89100
H812        H  0.85321757  0.31934927  0.79364130     0.18600
H813        H  0.87188587  0.50481980  0.82977481     0.18600
N814        N  0.87042057  0.43069367  0.86818812    -0.88100
H815        H  0.81812939  0.37726024  0.74949111     0.36000
H816        H  0.89828952  0.36496768  0.74888411     0.41100
H817        H  0.90959110  0.40834094  0.87676183     0.40700
H818        H  0.82878533  0.41672334  0.87732579     0.35600
C819        C  0.93395311  0.57001816  0.80219832    -0.26100
C820        C  0.87891781  0.56445744  0.78606810    -0.14200
C821        C  0.83494653  0.61134936  0.78436607     0.36400
C822        C  0.84096218  0.65545479  0.80206269    -0.25600
C823        C  0.89237437  0.65718721  0.82012267    -0.14800
C824        C  0.94068068  0.61455226  0.81924191     0.37500
N825        N  0.99591971  0.61359254  0.83632544    -0.89100
H826        H  0.97090670  0.53722336  0.80290911     0.18600
H827        H  0.80515066  0.68920681  0.80134484     0.18600
N828        N  0.78592409  0.61662860  0.76407084    -0.88100
H829        H  0.98119528  0.61481316  0.85693593     0.36000
H830        H  0.02165282  0.64801530  0.83135757     0.41100
H831        H  0.79358905  0.65138554  0.75166282     0.40700
H832        H  0.74201794  0.62330087  0.77416342     0.35600
C833        C  0.67127604  0.39394167  0.69418010    -0.26100
C834        C  0.62157588  0.43563584  0.69259039    -0.14200
C835        C  0.56606641  0.42304063  0.67779275     0.36400
C836        C  0.56606615  0.37565103  0.66216475    -0.25600
C837        C  0.61986129  0.33931890  0.66045416    -0.14800
C838        C  0.67207857  0.34754825  0.67773715     0.37500
N839        N  0.72666612  0.30969718  0.67923630    -0.89100
H840        H  0.71180629  0.39776980  0.70732923     0.18600
H841        H  0.52442352  0.36920461  0.64993641     0.18600
N842        N  0.51074810  0.46010263  0.67680083    -0.88100
H843        H  0.75005412  0.30947906  0.66015060     0.36000
H844        H  0.71122598  0.27050793  0.68395820     0.41100
H845        H  0.50168547  0.47164273  0.65627346     0.40700
H846        H  0.47183274  0.43914539  0.68438622     0.35600
C847        C  0.62650113  0.58499276  0.63843246    -0.26100
C848        C  0.62664228  0.63701217  0.64945988    -0.14200
C849        C  0.62889281  0.64203332  0.67813156     0.36400
C850        C  0.62997703  0.59489817  0.69525320    -0.25600
C851        C  0.62662153  0.54141632  0.68476915    -0.14800
C852        C  0.62808227  0.53731360  0.65531807     0.37500
N853        N  0.63673031  0.48602088  0.64184586    -0.89100
H854        H  0.62730663  0.58111704  0.61624400     0.18600
H855        H  0.63137206  0.60013237  0.71731152     0.18600
N856        N  0.62953512  0.69462079  0.69040620    -0.88100
H857        H  0.67897191  0.48617923  0.63024317     0.36000
H858        H  0.59915232  0.48297792  0.62811900     0.41100
H859        H  0.58858162  0.71785886  0.68421115     0.40700
H860        H  0.66940377  0.71430203  0.68288486     0.35600
C861        C  0.51415439  0.53926590  0.71994950    -0.26100
C862        C  0.56339106  0.49806677  0.72561584    -0.14200
C863        C  0.54794555  0.45858093  0.74672268     0.36400
C864        C  0.98656380  0.46200408  0.75828256    -0.25600
C865        C  0.93838391  0.50400768  0.75254438    -0.14800
C866        C  0.95673998  0.54498662  0.73277610     0.37500
N867        N  0.91809239  0.59398510  0.72652974    -0.89100
H868        H  0.51885160  0.56924671  0.70348671     0.18600
H869        H  0.97934697  0.43110213  0.77411536     0.18600
N870        N  0.59080012  0.41326666  0.75521278    -0.88100
H871        H  0.91708146  0.61964535  0.74329487     0.36000
H872        H  0.87211621  0.58517920  0.72104760     0.41100
H873        H  0.60076099  0.41767233  0.77604703     0.40700
H874        H  0.63446463  0.41307590  0.74504601     0.35600
C875        C  0.80973839  0.49839791  0.72543144    -0.26100
C876        C  0.80926376  0.50617474  0.75405434    -0.14200
C877        C  0.74719726  0.50693874  0.76704629     0.36400
C878        C  0.69120108  0.50567219  0.75141066    -0.25600
C879        C  0.69151264  0.49718047  0.72280218    -0.14800
C880        C  0.75371251  0.49626588  0.70983090     0.37500
N881        N  0.76340891  0.49595188  0.68059432    -0.89100
H882        H  0.85462423  0.49417631  0.71438988     0.18600
H883        H  0.64666136  0.51026240  0.76259947     0.18600
N884        N  0.73776196  0.50732610  0.79633426    -0.88100
H885        H  0.74686531  0.53348947  0.67186006     0.36000
H886        H  0.74180906  0.46348203  0.67183472     0.41100
H887        H  0.76239243  0.53800946  0.80523385     0.40700
H888        H  0.75169551  0.46891739  0.80487423     0.35600
loop_ 
_geom_bond_atom_site_label_1 
_geom_bond_atom_site_label_2 
_geom_bond_distance 
_geom_bond_site_symmetry_2 
_ccdc_geom_bond_type 
C1          C168   1.572       .  S
C1          C185   1.574       .  S
C1          C196   1.605       .  S
C1          C213   1.601       .  S
C2          C143   1.577       .  S
C2          C154   1.576       .  S
C2          C199   1.605       .  S
C2          C210   1.590       .  S
O3            C6   1.267       .  A
O3           Cd8   2.469       .  S
C4           O13   1.268       .  A
C4            O9   1.263       .  A
C4          C126   1.484       .  S
O5           C11   1.268       .  A
O5           Cd8   2.480       .  S
C6           O14   1.264       .  A
C6          C112   1.482       .  S
C7           O12   1.270       .  A
C7           O10   1.269       .  A
C7           C98   1.493       .  S
Cd8          O15   2.463       .  S
Cd8          O14   2.435       .  S
Cd8          O13   2.460       .  S
Cd8           O9   2.436       .  S
Cd8          O12   2.477       .  S
Cd8          O10   2.456       .  S
C11          O15   1.267       .  A
C11         C157   1.491       .  S
O16          C19   1.265       .  A
O16         Cd21   2.454       .  S
C17          O26   1.265       .  A
C17          O22   1.265       .  A
C17         C129   1.477       .  S
O18          C24   1.267       .  A
O18         Cd21   2.464       .  S
C19          O27   1.264       .  A
C19         C115   1.480       .  S
C20          O25   1.268       .  A
C20          O23   1.270       .  A
C20          C84   1.489       .  S
Cd21         O28   2.467       .  S
Cd21         O27   2.443       .  S
Cd21         O26   2.437       .  S
Cd21         O22   2.465       .  S
Cd21         O25   2.443       .  S
Cd21         O23   2.450       .  S
C24          O28   1.267       .  A
C24         C182   1.471       .  S
O29          C32   1.268       .  A
O29         Cd34   2.469       .  S
C30          O39   1.269       .  A
C30          O35   1.263       .  A
C30          C56   1.484       .  S
O31          C37   1.268       .  A
O31         Cd34   2.468       .  S
C32          O40   1.264       .  A
C32          C70   1.485       .  S
C33          O38   1.267       .  A
C33          O36   1.265       .  A
C33         C140   1.474       .  S
Cd34         O41   2.460       .  S
Cd34         O40   2.432       .  S
Cd34         O39   2.466       .  S
Cd34         O35   2.437       .  S
Cd34         O38   2.492       .  S
Cd34         O36   2.450       .  S
C37          O41   1.269       .  A
C37         C101   1.491       .  S
O42          C45   1.264       .  A
O42         Cd47   2.439       .  S
C43          O52   1.264       .  A
C43          O48   1.270       .  A
C43          C59   1.488   1_455  S
O44          C50   1.268       .  A
O44         Cd47   2.428       .  S
C45          O53   1.268       .  A
C45          C73   1.483       .  S
C46          O51   1.266       .  A
C46          O49   1.270       .  A
C46         C171   1.491       .  S
Cd47         O54   2.467       .  S
Cd47         O53   2.445       .  S
Cd47         O52   2.430       .  S
Cd47         O48   2.482       .  S
Cd47         O51   2.473       .  S
Cd47         O49   2.466       .  S
C50          O54   1.269       .  A
C50          C87   1.489       .  S
C55          C60   1.407       .  A
C55         C500   1.410       .  A
C55          H62   1.083       .  S
C56         C499   1.412       .  A
C56         C279   1.407       .  A
C57          C58   1.400   1_556  A
C57         C278   1.411       .  A
C57          N64   1.433       .  S
C58         C503   1.404       .  A
C58          H63   1.084       .  S
C59         C502   1.408   1_655  A
C59         C282   1.412       .  A
C60         C281   1.410       .  A
C60          N61   1.437       .  S
N61          H65   1.048       .  S
N61          H66   1.044       .  S
N64          H67   1.046       .  S
N64          H68   1.045       .  S
C69          C74   1.405   1_556  A
C69         C292   1.405       .  A
C69          H76   1.084       .  S
C70          C71   1.414       .  A
C70         C291   1.406       .  A
C71          C72   1.405       .  A
C71          N78   1.438       .  S
C72         C295   1.405       .  A
C72          H77   1.083       .  S
C73          C74   1.413       .  A
C73         C294   1.403       .  A
C74          N75   1.432       .  S
N75          H79   1.046       .  S
N75          H80   1.045       .  S
N78          H81   1.045       .  S
N78          H82   1.046       .  S
C83          C84   1.407       .  A
C83          C88   1.401   1_565  A
C83          H90   1.084       .  S
C84          C85   1.419       .  A
C85          C86   1.398   1_565  A
C85          N92   1.433       .  S
C86          C87   1.406       .  A
C86          H91   1.084       .  S
C87          C88   1.418       .  A
C88          N89   1.432   1_455  S
N89          H93   1.044       .  S
N89          H94   1.046       .  S
N92          H95   1.045       .  S
N92          H96   1.045       .  S
C97          C98   1.407       .  A
C97         C102   1.407   1_565  A
C97         H104   1.084       .  S
C98          C99   1.415       .  A
C99         C100   1.408   1_565  A
C99         N106   1.437       .  S
C100        C101   1.405       .  A
C100        H105   1.083       .  S
C101        C102   1.413       .  A
C102        N103   1.432       .  S
N103        H107   1.046       .  S
N103        H108   1.046       .  S
N106        H109   1.046       .  S
N106        H110   1.046       .  S
C111        C116   1.403   1_556  A
C111        C334   1.407       .  A
C111        H118   1.084       .  S
C112        C113   1.417       .  A
C112        C333   1.401       .  A
C113        C114   1.405       .  A
C113        N120   1.439       .  S
C114        C337   1.403       .  A
C114        H119   1.083       .  S
C115        C116   1.408       .  A
C115        C336   1.406   1_554  A
C116        N117   1.432       .  S
N117        H121   1.045       .  S
N117        H122   1.046       .  S
N120        H123   1.045       .  S
N120        H124   1.046       .  S
C125        C130   1.405   1_556  A
C125        C348   1.408       .  A
C125        H132   1.084       .  S
C126        C347   1.411       .  A
C126        C571   1.411       .  A
C127        C128   1.404       .  A
C127        C570   1.409   1_455  A
C127        N134   1.438       .  S
C128        C351   1.407       .  A
C128        H133   1.084       .  S
C129        C350   1.404   1_554  A
C129        C574   1.408   1_455  A
C130        C573   1.409       .  A
C130        N131   1.437       .  S
N131        H135   1.046       .  S
N131        H580   1.045       .  S
N134        H138   1.046       .  S
N134        H581   1.046       .  S
H136        N575   1.046       .  S
H137        N578   1.046       .  S
C139        C140   1.397       .  A
C139        C144   1.409       .  A
C139        H146   1.084       .  S
C140        C141   1.404       .  A
C141        C142   1.396       .  A
C141        N148   1.434       .  S
C142        C143   1.421       .  A
C142        H147   1.077       .  S
C143        C144   1.430       .  A
C144        N145   1.432       .  S
N145        H149   1.046       .  S
N145        H150   1.045       .  S
N148        H151   1.045       .  S
N148        H152   1.046       .  S
C153        C154   1.418       .  A
C153        C158   1.399       .  A
C153        H160   1.084       .  S
C154        C155   1.430       .  A
C155        C156   1.409       .  A
C155        N162   1.431       .  S
C156        C157   1.402       .  A
C156        H161   1.084       .  S
C157        C158   1.413       .  A
C158        N159   1.433       .  S
N159        H163   1.046       .  S
N159        H164   1.045       .  S
N162        H165   1.045       .  S
N162        H166   1.046       .  S
C167        C168   1.418       .  A
C167        C172   1.405       .  A
C167        H174   1.080       .  S
C168        C169   1.429       .  A
C169        C170   1.401       .  A
C169        N176   1.432       .  S
C170        C171   1.398       .  A
C170        H175   1.084       .  S
C171        C172   1.416       .  A
C172        N173   1.433       .  S
N173        H177   1.044       .  S
N173        H178   1.045       .  S
N176        H179   1.045       .  S
N176        H180   1.046   1_455  S
C181        C182   1.391       .  A
C181        C186   1.401       .  A
C181        H188   1.085       .  S
C182        C183   1.405       .  A
C183        C184   1.403       .  A
C183        N190   1.432       .  S
C184        C185   1.421       .  A
C184        H189   1.084       .  S
C185        C186   1.437       .  A
C186        N187   1.432       .  S
N187        H191   1.046       .  S
N187        H192   1.046       .  S
N190        H193   1.045       .  S
N190        H194   1.046       .  S
C195        C196   1.425       .  A
C195        C644   1.410   1_455  A
C195        H202   1.076       .  S
C196        C197   1.434       .  A
C197        C642   1.414   1_455  A
C197        N204   1.440       .  S
C198        C199   1.423       .  A
C198        C641   1.417       .  A
C198        H203   1.077       .  S
C199        C200   1.433       .  A
C200        C639   1.410       .  A
C200        N201   1.434       .  S
N201        H205   1.041       .  S
N201        H206   1.040       .  S
N204        H207   1.046       .  S
N204        H208   1.036       .  S
C209        C210   1.408       .  A
C209        C214   1.409       .  A
C209        H216   1.080       .  S
C210        C211   1.440       .  A
C211        C212   1.410       .  A
C211        N218   1.434       .  S
C212        C213   1.412       .  A
C212        H217   1.079       .  S
C213        C214   1.442       .  A
C214        N215   1.432       .  S
N215        H219   1.042       .  S
N215        H220   1.038       .  S
N218        H221   1.041       .  S
N218        H222   1.042       .  S
C223        C390   1.570       .  S
C223        C407   1.574       .  S
C223        C418   1.609       .  S
C223        C435   1.601       .  S
C224        C365   1.572       .  S
C224        C376   1.573       .  S
C224        C421   1.602       .  S
C224        C432   1.592       .  S
O225        C228   1.264       .  A
O225       Cd230   2.443       .  S
C226        O235   1.266       .  A
C226        O231   1.263       .  A
C226        C348   1.480       .  S
O227        C233   1.268       .  A
O227       Cd230   2.467       .  S
C228        O236   1.265       .  A
C228        C334   1.483       .  S
C229        O234   1.270       .  A
C229        O232   1.269       .  A
C229        C320   1.491       .  S
Cd230       O237   2.475       .  S
Cd230       O236   2.454       .  S
Cd230       O235   2.467       .  S
Cd230       O231   2.435       .  S
Cd230       O234   2.449       .  S
Cd230       O232   2.474       .  S
C233        O237   1.266       .  A
C233        C379   1.488       .  S
O238        C241   1.264       .  A
O238       Cd243   2.439       .  S
C239        O248   1.263       .  A
C239        O244   1.270       .  A
C239        C351   1.477       .  S
O240        C246   1.266       .  A
O240       Cd243   2.461       .  S
C241        O249   1.270       .  A
C241        C337   1.487       .  S
C242        O247   1.267       .  A
C242        O245   1.268       .  A
C242        C306   1.489       .  S
Cd243       O250   2.463       .  S
Cd243       O249   2.466       .  S
Cd243       O248   2.414       .  S
Cd243       O244   2.474       .  S
Cd243       O247   2.446       .  S
Cd243       O245   2.454       .  S
C246        O250   1.267       .  A
C246        C404   1.469       .  S
O251        C254   1.264       .  A
O251       Cd256   2.462       .  S
C252        O261   1.266       .  A
C252        O257   1.264       .  A
C252        C278   1.480       .  S
O253        C259   1.269       .  A
O253       Cd256   2.466       .  S
C254        O262   1.264       .  A
C254        C292   1.482       .  S
C255        O260   1.266       .  A
C255        O258   1.266       .  A
C255        C362   1.472       .  S
Cd256       O263   2.461       .  S
Cd256       O262   2.444       .  S
Cd256       O261   2.453       .  S
Cd256       O257   2.437       .  S
Cd256       O260   2.472       .  S
Cd256       O258   2.464       .  S
C259        O263   1.270       .  A
C259        C323   1.493       .  S
O264        C267   1.263       .  A
O264       Cd269   2.448       .  S
C265        O274   1.264       .  A
C265        O270   1.267       .  A
C265        C281   1.479   1_455  S
O266        C272   1.269       .  A
O266       Cd269   2.451       .  S
C267        O275   1.267       .  A
C267        C295   1.484       .  S
C268        O273   1.267       .  A
C268        O271   1.268       .  A
C268        C393   1.491       .  S
Cd269       O276   2.460       .  S
Cd269       O275   2.461       .  S
Cd269       O274   2.430       .  S
Cd269       O270   2.474       .  S
Cd269       O273   2.478       .  S
Cd269       O271   2.464       .  S
C272        O276   1.269       .  A
C272        C309   1.490       .  S
C277        C722   1.409       .  A
C277        C282   1.408   1_556  A
C277        H284   1.083       .  S
C278        C721   1.406       .  A
C279        C280   1.399       .  A
C279        N286   1.433       .  S
C280        C725   1.406       .  A
C280        H285   1.084       .  S
C281        C724   1.406   1_655  A
C282        N283   1.437       .  S
N283        H287   1.048       .  S
N283        H288   1.044       .  S
N286        H289   1.046       .  S
N286        H290   1.046       .  S
C291        C296   1.407       .  A
C291        H298   1.083       .  S
C292        C293   1.413       .  A
C293        C294   1.400   1_556  A
C293        N300   1.433       .  S
C294        H299   1.084       .  S
C295        C296   1.414       .  A
C296        N297   1.438       .  S
N297        H301   1.046       .  S
N297        H302   1.045       .  S
N300        H303   1.045       .  S
N300        H304   1.046       .  S
C305        C306   1.406       .  A
C305        C310   1.400   1_565  A
C305        H312   1.084       .  S
C306        C307   1.418       .  A
C307        C308   1.400   1_565  A
C307        N314   1.433       .  S
C308        C309   1.406       .  A
C308        H313   1.084       .  S
C309        C310   1.419       .  A
C310        N311   1.432   1_455  S
N311        H315   1.045       .  S
N311        H316   1.046       .  S
N314        H317   1.044       .  S
N314        H318   1.046       .  S
C319        C320   1.405       .  A
C319        C324   1.403   1_565  A
C319        H326   1.084       .  S
C320        C321   1.416       .  A
C321        C322   1.410   1_565  A
C321        N328   1.438       .  S
C322        C323   1.408       .  A
C322        H327   1.083       .  S
C323        C324   1.413       .  A
C324        N325   1.432       .  S
N325        H329   1.045       .  S
N325        H330   1.046       .  S
N328        H331   1.046       .  S
N328        H332   1.046       .  S
C333        C338   1.404       .  A
C333        H340   1.084       .  S
C334        C335   1.412       .  A
C335        C336   1.402       .  A
C335        N342   1.433       .  S
C336        H341   1.084   1_556  S
C337        C338   1.416       .  A
C338        N339   1.432       .  S
N339        H343   1.046       .  S
N339        H344   1.046       .  S
N342        H345   1.046       .  S
N342        H346   1.045       .  S
C347        C352   1.407       .  A
C347        H354   1.083       .  S
C348        C793   1.409       .  A
C349        C792   1.413   1_455  A
C349        C350   1.404       .  A
C349        N356   1.438       .  S
C350        H355   1.084   1_556  S
C351        C796   1.407   1_455  A
C352        C795   1.407       .  A
C352        N353   1.438       .  S
N353        H357   1.046       .  S
N353        H802   1.046       .  S
N356        H803   1.046       .  S
N356        H360   1.046       .  S
H358        N797   1.046       .  S
H359        N800   1.046       .  S
C361        C362   1.396       .  A
C361        C366   1.406       .  A
C361        H368   1.084       .  S
C362        C363   1.405       .  A
C363        C364   1.397       .  A
C363        N370   1.433       .  S
C364        C365   1.421       .  A
C364        H369   1.078       .  S
C365        C366   1.428       .  A
C366        N367   1.433       .  S
N367        H371   1.046       .  S
N367        H372   1.045       .  S
N370        H373   1.045       .  S
N370        H374   1.046       .  S
C375        C376   1.420       .  A
C375        C380   1.399       .  A
C375        H382   1.084       .  S
C376        C377   1.429       .  A
C377        C378   1.406       .  A
C377        N384   1.431       .  S
C378        C379   1.400       .  A
C378        H383   1.084       .  S
C379        C380   1.413       .  A
C380        N381   1.433       .  S
N381        H385   1.045       .  S
N381        H386   1.045       .  S
N384        H387   1.045       .  S
N384        H388   1.046       .  S
C389        C390   1.417       .  A
C389        C394   1.404       .  A
C389        H396   1.080       .  S
C390        C391   1.429       .  A
C391        C392   1.403       .  A
C391        N398   1.433       .  S
C392        C393   1.400       .  A
C392        H397   1.084       .  S
C393        C394   1.415       .  A
C394        N395   1.432       .  S
N395        H399   1.044       .  S
N395        H400   1.046       .  S
N398        H401   1.045       .  S
N398        H402   1.046   1_455  S
C403        C404   1.390       .  A
C403        C408   1.400       .  A
C403        H410   1.085       .  S
C404        C405   1.405       .  A
C405        C406   1.402       .  A
C405        N412   1.432       .  S
C406        C407   1.421       .  A
C406        H411   1.084       .  S
C407        C408   1.438       .  A
C408        N409   1.432       .  S
N409        H413   1.046       .  S
N409        H414   1.046       .  S
N412        H415   1.045       .  S
N412        H416   1.046       .  S
C417        C418   1.425       .  A
C417        C866   1.412   1_455  A
C417        H424   1.076       .  S
C418        C419   1.436       .  A
C419        C864   1.417   1_455  A
C419        N426   1.440       .  S
C420        C863   1.415       .  A
C420        C421   1.423       .  A
C420        H425   1.077       .  S
C421        C422   1.430       .  A
C422        C861   1.408       .  A
C422        N423   1.434       .  S
N423        H427   1.042       .  S
N423        H428   1.040       .  S
N426        H429   1.046       .  S
N426        H430   1.035       .  S
C431        C432   1.408       .  A
C431        C436   1.410       .  A
C431        H438   1.080       .  S
C432        C433   1.440       .  A
C433        C434   1.410       .  A
C433        N440   1.434       .  S
C434        C435   1.411       .  A
C434        H439   1.078       .  S
C435        C436   1.444       .  A
C436        N437   1.432       .  S
N437        H441   1.042       .  S
N437        H442   1.039       .  S
N440        H443   1.041       .  S
N440        H444   1.042       .  S
C445        C612   1.573       .  S
C445        C629   1.573       .  S
C445        C640   1.607       .  S
C445        C657   1.603       .  S
C446        C587   1.574       .  S
C446        C598   1.574       .  S
C446        C643   1.605       .  S
C446        C654   1.592       .  S
O447        C450   1.267       .  A
O447       Cd452   2.465       .  S
C448        O457   1.269       .  A
C448        O453   1.263       .  A
C448        C570   1.481       .  S
O449        C455   1.268       .  A
O449       Cd452   2.488       .  S
C450        O458   1.264       .  A
C450        C556   1.488       .  S
C451        O456   1.269       .  A
C451        O454   1.269       .  A
C451        C542   1.490       .  S
Cd452       O459   2.461       .  S
Cd452       O458   2.449       .  S
Cd452       O457   2.476       .  S
Cd452       O453   2.423       .  S
Cd452       O456   2.457       .  S
Cd452       O454   2.460       .  S
C455        O459   1.265       .  A
C455        C601   1.490       .  S
O460        C463   1.265       .  A
O460       Cd465   2.455       .  S
C461        O470   1.265       .  A
C461        O466   1.266       .  A
C461        C573   1.478       .  S
O462        C468   1.266       .  A
O462       Cd465   2.449       .  S
C463        O471   1.264       .  A
C463        C559   1.482       .  S
C464        O469   1.267       .  A
C464        O467   1.271       .  A
C464        C528   1.488       .  S
Cd465       O472   2.479       .  S
Cd465       O471   2.434       .  S
Cd465       O470   2.441       .  S
Cd465       O466   2.465       .  S
Cd465       O469   2.436       .  S
Cd465       O467   2.449       .  S
C468        O472   1.268       .  A
C468        C626   1.472       .  S
O473        C476   1.265       .  A
O473       Cd478   2.453       .  S
C474        O483   1.267       .  A
C474        O479   1.263       .  A
C474        C500   1.484       .  S
O475        C481   1.269       .  A
O475       Cd478   2.446       .  S
C476        O484   1.266       .  A
C476        C514   1.481       .  S
C477        O482   1.267       .  A
C477        O480   1.266       .  A
C477        C584   1.472       .  S
Cd478       O485   2.468       .  S
Cd478       O484   2.441       .  S
Cd478       O483   2.466       .  S
Cd478       O479   2.431       .  S
Cd478       O482   2.473       .  S
Cd478       O480   2.463       .  S
C481        O485   1.270       .  A
C481        C545   1.491       .  S
O486        C489   1.266       .  A
O486       Cd491   2.453       .  S
C487        O496   1.268       .  A
C487        O492   1.263       .  A
C487        C503   1.477       .  S
O488        C494   1.270       .  A
O488       Cd491   2.442       .  S
C489        O497   1.264       .  A
C489        C517   1.484       .  S
C490        O495   1.268       .  A
C490        O493   1.268       .  A
C490        C615   1.494       .  S
Cd491       O498   2.448       .  S
Cd491       O497   2.452       .  S
Cd491       O496   2.450       .  S
Cd491       O492   2.436       .  S
Cd491       O495   2.490       .  S
Cd491       O493   2.462       .  S
C494        O498   1.268       .  A
C494        C531   1.488       .  S
C499        C504   1.410       .  A
C499        H506   1.084       .  S
C500        C723   1.409   1_655  A
C501        C722   1.410   1_455  A
C501        C502   1.402   1_556  A
C501        N508   1.433       .  S
C502        H507   1.084       .  S
C503        C726   1.412       .  A
C504        C725   1.409       .  A
C504        N505   1.437       .  S
N505        H509   1.046       .  S
N505        H510   1.045       .  S
N508        H511   1.046       .  S
N508        H512   1.046       .  S
C513        C736   1.405       .  A
C513        C518   1.400   1_556  A
C513        H520   1.084       .  S
C514        C735   1.403       .  A
C514        C515   1.412       .  A
C515        C516   1.402       .  A
C515        N522   1.433       .  S
C516        C739   1.404       .  A
C516        H521   1.084       .  S
C517        C738   1.408       .  A
C517        C518   1.409       .  A
C518        N519   1.432       .  S
N519        H523   1.045       .  S
N519        H524   1.046       .  S
N522        H525   1.045       .  S
N522        H526   1.046       .  S
C527        C528   1.405       .  A
C527        C532   1.399   1_565  A
C527        H534   1.084       .  S
C528        C529   1.419       .  A
C529        C530   1.399   1_565  A
C529        N536   1.433       .  S
C530        C531   1.406       .  A
C530        H535   1.084       .  S
C531        C532   1.419       .  A
C532        N533   1.432       .  S
N533        H537   1.045       .  S
N533        H538   1.045       .  S
N536        H539   1.044       .  S
N536        H540   1.045       .  S
C541        C542   1.405       .  A
C541        C546   1.404   1_565  A
C541        H548   1.084       .  S
C542        C543   1.414       .  A
C543        C544   1.406   1_565  A
C543        N550   1.432       .  S
C544        C545   1.406       .  A
C544        H549   1.084       .  S
C545        C546   1.414       .  A
C546        N547   1.432       .  S
N547        H551   1.045   1_655  S
N547        H552   1.046   1_655  S
N550        H553   1.045       .  S
N550        H554   1.046       .  S
C555        C778   1.407       .  A
C555        C560   1.404   1_556  A
C555        H562   1.084       .  S
C556        C777   1.406       .  A
C556        C557   1.413       .  A
C557        C558   1.405       .  A
C557        N564   1.433       .  S
C558        C781   1.406       .  A
C558        H563   1.084       .  S
C559        C780   1.405       .  A
C559        C560   1.410       .  A
C560        N561   1.432       .  S
N561        H565   1.046       .  S
N561        H566   1.045       .  S
N564        H567   1.046       .  S
N564        H568   1.045       .  S
C569        C792   1.410       .  A
C569        C574   1.407   1_556  A
C569        H576   1.083       .  S
C570        C791   1.410       .  A
C571        C572   1.403       .  A
C571        N578   1.438       .  S
C572        C795   1.405       .  A
C572        H577   1.084       .  S
C573        C794   1.407   1_554  A
C574        N575   1.437       .  S
N575        H579   1.045       .  S
N578        H582   1.045       .  S
C583        C584   1.396       .  A
C583        C588   1.407       .  A
C583        H590   1.084       .  S
C584        C585   1.404       .  A
C585        C586   1.397       .  A
C585        N592   1.434       .  S
C586        C587   1.421       .  A
C586        H591   1.077       .  S
C587        C588   1.429       .  A
C588        N589   1.433       .  S
N589        H593   1.046       .  S
N589        H594   1.045       .  S
N592        H595   1.045       .  S
N592        H596   1.046       .  S
C597        C598   1.418       .  A
C597        C602   1.398       .  A
C597        H604   1.083       .  S
C598        C599   1.430       .  A
C599        C600   1.409       .  A
C599        N606   1.432       .  S
C600        C601   1.402       .  A
C600        H605   1.084       .  S
C601        C602   1.414       .  A
C602        N603   1.433       .  S
N603        H607   1.045       .  S
N603        H608   1.045   1_655  S
N606        H609   1.045       .  S
N606        H610   1.046       .  S
C611        C612   1.417       .  A
C611        C616   1.406       .  A
C611        H618   1.080       .  S
C612        C613   1.430       .  A
C613        C614   1.403       .  A
C613        N620   1.433       .  S
C614        C615   1.401       .  A
C614        H619   1.084       .  S
C615        C616   1.416       .  A
C616        N617   1.432       .  S
N617        H621   1.045       .  S
N617        H622   1.045       .  S
N620        H623   1.045       .  S
N620        H624   1.046       .  S
C625        C626   1.392       .  A
C625        C630   1.402       .  A
C625        H632   1.085       .  S
C626        C627   1.405       .  A
C627        C628   1.401       .  A
C627        N634   1.432       .  S
C628        C629   1.421       .  A
C628        H633   1.084       .  S
C629        C630   1.437       .  A
C630        N631   1.431       .  S
N631        H635   1.046       .  S
N631        H636   1.046       .  S
N634        H637   1.046       .  S
N634        H638   1.045       .  S
C639        C640   1.424       .  A
C639        H646   1.076       .  S
C640        C641   1.435       .  A
C641        N648   1.440       .  S
C642        C643   1.424       .  A
C642        H647   1.077       .  S
C643        C644   1.431       .  A
C644        N645   1.434       .  S
N645        H649   1.041       .  S
N645        H650   1.040       .  S
N648        H651   1.046       .  S
N648        H652   1.036       .  S
C653        C654   1.409       .  A
C653        C658   1.412       .  A
C653        H660   1.081       .  S
C654        C655   1.440       .  A
C655        C656   1.409       .  A
C655        N662   1.435       .  S
C656        C657   1.412       .  A
C656        H661   1.078       .  S
C657        C658   1.444       .  A
C658        N659   1.433       .  S
N659        H663   1.042       .  S
N659        H664   1.039       .  S
N662        H665   1.040       .  S
N662        H666   1.042       .  S
C667        C834   1.572       .  S
C667        C851   1.573       .  S
C667        C862   1.604       .  S
C667        C879   1.601       .  S
C668        C809   1.577       .  S
C668        C820   1.577       .  S
C668        C865   1.606       .  S
C668        C876   1.591       .  S
O669        C672   1.265       .  A
O669       Cd674   2.455       .  S
C670        O679   1.265       .  A
C670        O675   1.265       .  A
C670        C792   1.485       .  S
O671        C677   1.268       .  A
O671       Cd674   2.476       .  S
C672        O680   1.264       .  A
C672        C778   1.483       .  S
C673        O678   1.270       .  A
C673        O676   1.270       .  A
C673        C764   1.487       .  S
Cd674       O681   2.467       .  S
Cd674       O680   2.430       .  S
Cd674       O679   2.452       .  S
Cd674       O675   2.456       .  S
Cd674       O678   2.448       .  S
Cd674       O676   2.460       .  S
C677        O681   1.268       .  A
C677        C823   1.491       .  S
O682        C685   1.265       .  A
O682       Cd687   2.460       .  S
C683        O692   1.264       .  A
C683        O688   1.267       .  A
C683        C795   1.476       .  S
O684        C690   1.267       .  A
O684       Cd687   2.462       .  S
C685        O693   1.266       .  A
C685        C781   1.488       .  S
C686        O691   1.267       .  A
C686        O689   1.270       .  A
C686        C750   1.489       .  S
Cd687       O694   2.461       .  S
Cd687       O693   2.466       .  S
Cd687       O692   2.420       .  S
Cd687       O688   2.462       .  S
Cd687       O691   2.441       .  S
Cd687       O689   2.470       .  S
C690        O694   1.268       .  A
C690        C848   1.471       .  S
O695        C698   1.266       .  A
O695       Cd700   2.444       .  S
C696        O705   1.268       .  A
C696        O701   1.264       .  A
C696        C722   1.487       .  S
O697        C703   1.268       .  A
O697       Cd700   2.446       .  S
C698        O706   1.264       .  A
C698        C736   1.480       .  S
C699        O704   1.267       .  A
C699        O702   1.265       .  A
C699        C806   1.477       .  S
Cd700       O707   2.469       .  S
Cd700       O706   2.448       .  S
Cd700       O705   2.469       .  S
Cd700       O701   2.446       .  S
Cd700       O704   2.500       .  S
Cd700       O702   2.459       .  S
C703        O707   1.270       .  A
C703        C767   1.491       .  S
O708        C711   1.264       .  A
O708       Cd713   2.449       .  S
C709        O718   1.263       .  A
C709        O714   1.269       .  A
C709        C725   1.479       .  S
O710        C716   1.269       .  A
O710       Cd713   2.445       .  S
C711        O719   1.267       .  A
C711        C739   1.487       .  S
C712        O717   1.268       .  A
C712        O715   1.269       .  A
C712        C837   1.490       .  S
Cd713       O720   2.469       .  S
Cd713       O719   2.460       .  S
Cd713       O718   2.411       .  S
Cd713       O714   2.497       .  S
Cd713       O717   2.476       .  S
Cd713       O715   2.453       .  S
C716        O720   1.268       .  A
C716        C753   1.491       .  S
C721        C726   1.406   1_556  A
C721        H728   1.083       .  S
C723        C724   1.400       .  A
C723        N730   1.432       .  S
C724        H729   1.084       .  S
C726        N727   1.437       .  S
N727        H731   1.045       .  S
N727        H732   1.046       .  S
N730        H733   1.046       .  S
N730        H734   1.045       .  S
C735        C740   1.405       .  A
C735        H742   1.084       .  S
C736        C737   1.412       .  A
C737        C738   1.407   1_556  A
C737        N744   1.438       .  S
C738        H743   1.083       .  S
C739        C740   1.415       .  A
C740        N741   1.432       .  S
N741        H745   1.046       .  S
N741        H746   1.045       .  S
N744        H747   1.045       .  S
N744        H748   1.046       .  S
C749        C750   1.406       .  A
C749        C754   1.403   1_565  A
C749        H756   1.084       .  S
C750        C751   1.418       .  A
C751        C752   1.397   1_565  A
C751        N758   1.433       .  S
C752        C753   1.405       .  A
C752        H757   1.084       .  S
C753        C754   1.420       .  A
C754        N755   1.432       .  S
N755        H759   1.044       .  S
N755        H760   1.046       .  S
N758        H761   1.045       .  S
N758        H762   1.045       .  S
C763        C764   1.404       .  A
C763        C768   1.402   1_565  A
C763        H770   1.084       .  S
C764        C765   1.413       .  A
C765        C766   1.410   1_565  A
C765        N772   1.437       .  S
C766        C767   1.407       .  A
C766        H771   1.083       .  S
C767        C768   1.413       .  A
C768        N769   1.432       .  S
N769        H773   1.045   1_655  S
N769        H774   1.046   1_655  S
N772        H775   1.046       .  S
N772        H776   1.046       .  S
C777        C782   1.405       .  A
C777        H784   1.083       .  S
C778        C779   1.413       .  A
C779        C780   1.400   1_556  A
C779        N786   1.433       .  S
C780        H785   1.084       .  S
C781        C782   1.411       .  A
C782        N783   1.432       .  S
N783        H787   1.046       .  S
N783        H788   1.045       .  S
N786        H789   1.046       .  S
N786        H790   1.045       .  S
C791        C796   1.405       .  A
C791        H798   1.084       .  S
C793        C794   1.405       .  A
C793        N800   1.438       .  S
C794        H799   1.084       .  S
C796        N797   1.438       .  S
N797        H801   1.045       .  S
N800        H804   1.046       .  S
C805        C806   1.397       .  A
C805        C810   1.408       .  A
C805        H812   1.084       .  S
C806        C807   1.406       .  A
C807        C808   1.398       .  A
C807        N814   1.433       .  S
C808        C809   1.421       .  A
C808        H813   1.076       .  S
C809        C810   1.430       .  A
C810        N811   1.432       .  S
N811        H815   1.046       .  S
N811        H816   1.045       .  S
N814        H817   1.045       .  S
N814        H818   1.046       .  S
C819        C820   1.418       .  A
C819        C824   1.400       .  A
C819        H826   1.083       .  S
C820        C821   1.431       .  A
C821        C822   1.409       .  A
C821        N828   1.431       .  S
C822        C823   1.402       .  A
C822        H827   1.084       .  S
C823        C824   1.413       .  A
C824        N825   1.432       .  S
N825        H829   1.045       .  S
N825        H830   1.045   1_655  S
N828        H831   1.045       .  S
N828        H832   1.046       .  S
C833        C834   1.417       .  A
C833        C838   1.404       .  A
C833        H840   1.080       .  S
C834        C835   1.429       .  A
C835        C836   1.402       .  A
C835        N842   1.432       .  S
C836        C837   1.400       .  A
C836        H841   1.084       .  S
C837        C838   1.415       .  A
C838        N839   1.433       .  S
N839        H843   1.044       .  S
N839        H844   1.046       .  S
N842        H845   1.045       .  S
N842        H846   1.046       .  S
C847        C848   1.393       .  A
C847        C852   1.404       .  A
C847        H854   1.085       .  S
C848        C849   1.403       .  A
C849        C850   1.400       .  A
C849        N856   1.432       .  S
C850        C851   1.421       .  A
C850        H855   1.084       .  S
C851        C852   1.437       .  A
C852        N853   1.431       .  S
N853        H857   1.046       .  S
N853        H858   1.046       .  S
N856        H859   1.046       .  S
N856        H860   1.045       .  S
C861        C862   1.425       .  A
C861        H868   1.076       .  S
C862        C863   1.434       .  A
C863        N870   1.440       .  S
C864        C865   1.423       .  A
C864        H869   1.077       .  S
C865        C866   1.432       .  A
C866        N867   1.434       .  S
N867        H871   1.041       .  S
N867        H872   1.040       .  S
N870        H873   1.046       .  S
N870        H874   1.036       .  S
C875        C876   1.409       .  A
C875        C880   1.411       .  A
C875        H882   1.080       .  S
C876        C877   1.441       .  A
C877        C878   1.409       .  A
C877        N884   1.435       .  S
C878        C879   1.411       .  A
C878        H883   1.078       .  S
C879        C880   1.443       .  A
C880        N881   1.433       .  S
N881        H885   1.042       .  S
N881        H886   1.039       .  S
N884        H887   1.040       .  S
N884        H888   1.042       .  S
