geometry optimzed in LAMMPS
_audit_creation_date              2020-11-30 
_audit_creation_method            'lammps2cif' 
_symmetry_space_group_name_H-M    'P1' 
_symmetry_Int_Tables_number       1 
_symmetry_cell_setting            triclinic 
loop_ 
_symmetry_equiv_pos_as_xyz 
  x,y,z 
_cell_length_a                    23.305785177982337 
_cell_length_b                    65.88917837458042 
_cell_length_c                    38.61470855425308 
_cell_angle_alpha                 90.50587860339341 
_cell_angle_beta                  92.1189080454173 
_cell_angle_gamma                 93.59660342773185 
loop_ 
_atom_site_label 
_atom_site_type_symbol 
_atom_site_fract_x 
_atom_site_fract_y 
_atom_site_fract_z 
_atom_site_charge 
C1          C  0.24076199  0.11663005  0.00273850     0.04290
C2          C  0.23553485  0.10567689  0.03384467    -0.11860
C3          C  0.22206570  0.08461746  0.03428552     0.01790
C4          C  0.21314606  0.07460163  0.20192342    -0.10380
C5          C  0.21900997  0.08470572  0.16940635     0.04280
C6          C  0.23198201  0.10586447  0.17072736    -0.09800
H7          H  0.24496729  0.11329698  0.05823198     0.09880
H8          H  0.19994493  0.05864323  0.20220735     0.07410
H9          H  0.23925235  0.11356299  0.14684667     0.07260
C10         C  0.23301300  0.95384451  0.09983205     0.04290
C11         C  0.23639434  0.94318367  0.06847727    -0.11860
C12         C  0.22739065  0.92196755  0.06660018     0.01790
C13         C  0.21869458  0.91149116  0.09856805    -0.10380
C14         C  0.22142983  0.92182454  0.13165021     0.04280
C15         C  0.22652277  0.94322554  0.13095454    -0.09800
H16         H  0.24553061  0.95182024  0.04541925     0.09880
H17         H  0.20898497  0.89530806  0.09730252     0.07410
H18         H  0.22641563  0.95208675  0.15455921     0.07260
C19         C  0.23051014  0.04211407  0.10140440     0.04290
C20         C  0.23209324  0.05293958  0.07031084    -0.11860
C21         C  0.22099102  0.07358822  0.06909369     0.01790
C22         C  0.21220106  0.08354285  0.10152195    -0.10380
C23         C  0.21724057  0.07342972  0.13423651     0.04280
C24         C  0.22424603  0.05238009  0.13293732    -0.09800
H25         H  0.24137227  0.04481907  0.04691766     0.09880
H26         H  0.20063517  0.09911509  0.10116771     0.07410
H27         H  0.22568516  0.04361229  0.15637339     0.07260
C28         C  0.24695095  0.87981527  0.19877973     0.04290
C29         C  0.24634707  0.89092038  0.03042749    -0.11860
C30         C  0.22988521  0.91106002  0.03153845     0.01790
C31         C  0.21804756  0.92065484  0.19943175    -0.10380
C32         C  0.22336504  0.91070685  0.16662508     0.04280
C33         C  0.23600856  0.89010392  0.16752429    -0.09800
H34         H  0.25860612  0.88382471  0.05441272     0.09880
H35         H  0.20430511  0.93594976  0.20020063     0.07410
H36         H  0.23928124  0.88220053  0.14347778     0.07260
C37         C  0.26542729  0.85829847  0.19877629     0.04290
C38         C  0.26389198  0.84647900  0.02931746    -0.11860
C39         C  0.28987018  0.82777505  0.03068748     0.01790
C40         C  0.32385650  0.82276542  0.20307195    -0.10380
C41         C  0.30776499  0.82969805  0.17094526     0.04280
C42         C  0.28342376  0.84857644  0.16844642    -0.09800
H43         H  0.23767617  0.85078942  0.05039190     0.09880
H44         H  0.34688395  0.80896070  0.20447007     0.07410
H45         H  0.27608432  0.85439556  0.14278152     0.07260
O46         O  0.24156881  0.81265222  0.13099675    -0.56650
C47         C  0.14923180  0.75566889  0.10389322     0.75980
O48         O  0.29251537  0.79398731  0.05103074    -0.57810
C49         C  0.29042666  0.81331706  0.14653775     0.75950
C50         C  0.34802190  0.75492266  0.10249728     0.78340
Cd51       Cd  0.25509559  0.78082590  0.10199619     1.37470
O52         O  0.17510315  0.76217486  0.13162888    -0.56650
O53         O  0.32673435  0.76060364  0.13047305    -0.55460
C54         C  0.27185323  0.81129707  0.05370550     0.78300
O55         O  0.32486447  0.76063054  0.07428502    -0.57830
O56         O  0.17106235  0.76130817  0.07576758    -0.56280
O57         O  0.31988167  0.79788880  0.14384564    -0.56270
O58         O  0.23428727  0.81332388  0.07600588    -0.55440
C59         C  0.98880022  0.63818774  0.19945546     0.04290
C60         C  0.98263696  0.64959538  0.03067599    -0.11860
C61         C  0.95526070  0.66805522  0.02994255     0.01790
C62         C  0.92752464  0.67310032  0.20007130    -0.10380
C63         C  0.95098267  0.66732777  0.16961418     0.04280
C64         C  0.97823043  0.64891420  0.16834205    -0.09800
H65         H  0.00422321  0.64530422  0.05449188     0.09880
H66         H  0.90309270  0.68659032  0.20021194     0.07410
H67         H  0.99420763  0.64428608  0.14382234     0.07260
O68         O  0.01265474  0.68508285  0.13103906    -0.56650
C69         C  0.09657386  0.74217038  0.10394790     0.75980
O70         O  0.44588373  0.70150874  0.05283307    -0.57810
C71         C  0.46118908  0.68428501  0.14682275     0.75950
C72         C  0.39735986  0.74231538  0.10274747     0.78340
Cd73       Cd  0.99148620  0.71642900  0.10234223     1.37460
O74         O  0.07418121  0.73613010  0.13174779    -0.56650
O75         O  0.42166402  0.73712291  0.13096507    -0.55460
C76         C  0.97077505  0.68481063  0.05421761     0.78300
O77         O  0.41751138  0.73613811  0.07473933    -0.57830
O78         O  0.07145270  0.73594349  0.07586701    -0.56280
O79         O  0.43093799  0.69956524  0.14411954    -0.56270
O80         O  0.01229666  0.68411107  0.07602755    -0.55440
O81         O  0.42616676  0.26426638  0.12940360    -0.56650
C82         C  0.04459567  0.31392913  0.14491130     0.75980
O83         O  0.07480967  0.25845009  0.07216505    -0.57810
C84         C  0.39865641  0.25832499  0.10188295     0.75950
C85         C  0.52294199  0.31072440  0.05019517     0.78340
Cd86       Cd  0.50792274  0.28055578  0.09926818     1.37470
O87         O  0.49314856  0.31222381  0.12802802    -0.56650
O88         O  0.48509312  0.31234176  0.07237867    -0.55460
C89         C  0.09657611  0.25233231  0.10053444     0.78300
O90         O  0.05547536  0.29595473  0.05067909    -0.57830
O91         O  0.07355661  0.29830993  0.14301236    -0.56280
O92         O  0.42099760  0.26302378  0.07344486    -0.56270
O93         O  0.07673119  0.25905925  0.12826151    -0.55440
C94         C  0.51065703  0.35772713  0.19563901     0.04290
C95         C  0.50978688  0.34549513  0.02558524    -0.11860
C96         C  0.53666552  0.32694711  0.02587076     0.01790
C97         C  0.56631240  0.32169877  0.20131129    -0.10380
C98         C  0.55632720  0.32946826  0.16893276     0.04280
C99         C  0.53267932  0.34847951  0.16602353    -0.09800
H100        H  0.48684276  0.34980620  0.04805037     0.09880
H101        H  0.58850914  0.30773021  0.20338495     0.07410
H102        H  0.53060918  0.35525892  0.14069740     0.07260
O103        O  0.22986214  0.18416490  0.07508411    -0.56650
C104        C  0.14487693  0.23900179  0.10134848     0.75980
O105        O  0.29725057  0.20449429  0.15252535    -0.57810
C106        C  0.27453146  0.18635602  0.05751122     0.75950
C107        C  0.34490296  0.24569865  0.10269201     0.78340
Cd108      Cd  0.24860910  0.21710447  0.10325563     1.37460
O109        O  0.16655544  0.23290413  0.07382730    -0.56650
O110        O  0.31883732  0.23940297  0.07486232    -0.55460
C111        C  0.27267114  0.18674285  0.15045653     0.78300
O112        O  0.32393265  0.23984567  0.13105072    -0.57830
O113        O  0.16872379  0.23389386  0.12967139    -0.56280
O114        O  0.30167333  0.20365848  0.05846489    -0.56270
O115        O  0.23086455  0.18388226  0.12882604    -0.55440
C116        C  0.25645272  0.13922530  0.00331782     0.04290
C117        C  0.26559245  0.15057072  0.03469812    -0.11860
C118        C  0.29056804  0.17050819  0.03384285     0.01790
C119        C  0.31341683  0.17753463  0.00351026    -0.10380
C120        C  0.28811463  0.17099455  0.17482140     0.04280
C121        C  0.26399536  0.15091380  0.17215137    -0.09800
H122        H  0.25013371  0.14505330  0.05908252     0.09880
H123        H  0.33651990  0.19235236  0.00363575     0.07410
H124        H  0.24969173  0.14525512  0.14679885     0.07260
C125        C  0.99657625  0.38030770  0.19633637     0.04290
C126        C  0.98812168  0.39118772  0.02801438    -0.11860
C127        C  0.97031122  0.41119850  0.02883944     0.01790
C128        C  0.96344145  0.42074028  0.19630312    -0.10380
C129        C  0.97246340  0.41096927  0.16386260     0.04280
C130        C  0.98771471  0.39066679  0.16487926    -0.09800
H131        H  0.99986015  0.38435339  0.05222618     0.09880
H132        H  0.94828753  0.43587731  0.19607048     0.07410
H133        H  0.99470265  0.38324225  0.14073799     0.07260
C134        C  0.51393554  0.54326358  0.09883534     0.04290
C135        C  0.51564747  0.55400257  0.06765187    -0.11860
C136        C  0.52804070  0.57509410  0.06715844     0.01790
C137        C  0.53625662  0.58537931  0.10007684    -0.10380
C138        C  0.52951511  0.57502357  0.13243256     0.04280
C139        C  0.52004536  0.55374039  0.13071922    -0.09800
H140        H  0.50687633  0.54556306  0.04368339     0.09880
H141        H  0.54824786  0.60145800  0.10043690     0.07410
H142        H  0.51590737  0.54498740  0.15410961     0.07260
C143        C  0.98355169  0.45412144  0.09740358     0.04290
C144        C  0.97684072  0.44360585  0.06554736    -0.11860
C145        C  0.96829084  0.42230455  0.06387069     0.01790
C146        C  0.96267234  0.41186184  0.09616549    -0.10380
C147        C  0.97087423  0.42211887  0.12911116     0.04220
C148        C  0.98244451  0.44331234  0.12860525    -0.09800
H149        H  0.98030395  0.45231732  0.04206099     0.09880
H150        H  0.95161338  0.39571944  0.09555056     0.07410
H151        H  0.99169648  0.45172345  0.15255457     0.07260
C152        C  0.50344181  0.61709895  0.19929560     0.04290
C153        C  0.51293915  0.60645613  0.03130112    -0.11860
C154        C  0.52785809  0.58615527  0.03240323     0.01790
C155        C  0.53435441  0.57641007  0.20023983    -0.10380
C156        C  0.52738221  0.58617642  0.16747609     0.04280
C157        C  0.51237006  0.60652357  0.16812823    -0.09800
H158        H  0.50167164  0.61346657  0.05514426     0.09880
H159        H  0.54853116  0.56113916  0.20098925     0.07410
H160        H  0.50463197  0.61372442  0.14378977     0.07260
C161        C  0.00762175  0.51995498  0.09833287    -0.04180
C162        C  0.04596302  0.50806433  0.08061718    -0.01290
C163        C  0.03865518  0.48663859  0.08065345     0.03700
C164        C  0.99251479  0.47680429  0.09810048    -0.04170
C165        C  0.45502326  0.48872879  0.11374549    -0.01280
C166        C  0.46040503  0.51019275  0.11415863     0.03690
C167        C  0.09384705  0.51783885  0.06278876     0.38340
C168        C  0.40691947  0.47821377  0.13023080     0.38330
C169        C  0.41745928  0.52152266  0.13082191     0.36760
C170        C  0.07983107  0.47474704  0.06346163     0.36760
N171        N  0.38336891  0.53055999  0.14426254    -0.38060
N172        N  0.11258837  0.46531210  0.04960128    -0.38060
N173        N  0.36873513  0.46983595  0.14357473    -0.37510
N174        N  0.13172409  0.52565028  0.04834680    -0.37510
C175        C  0.23410080  0.97650653  0.09973098    -0.04180
C176        C  0.27546254  0.98835840  0.12020311    -0.01290
C177        C  0.27494276  0.00977408  0.12054856     0.03700
C178        C  0.23289095  0.01953490  0.10053384    -0.04170
C179        C  0.19182876  0.00764440  0.07988443    -0.01280
C180        C  0.19254614  0.98630840  0.07940596     0.03690
C181        C  0.31929442  0.97857478  0.14052079     0.38340
C182        C  0.14741826  0.01727535  0.05971944     0.38330
C183        C  0.14917220  0.97445167  0.05853747     0.36760
C184        C  0.31844522  0.02172738  0.14108656     0.36760
N185        N  0.11488664  0.96504228  0.04166503    -0.38060
N186        N  0.35294259  0.03122596  0.15766453    -0.38060
N187        N  0.11231321  0.02495347  0.04344746    -0.37510
N188        N  0.35399347  0.97076746  0.15691906    -0.37510
C189        C  0.23931901  0.11693454  0.20225694     0.04290
C190        C  0.23798976  0.10600216  0.23355971    -0.11860
C191        C  0.22452472  0.08495814  0.23441684     0.01790
C192        C  0.21503032  0.07430988  0.40154301    -0.10380
C193        C  0.22385185  0.08456768  0.36943641     0.04280
C194        C  0.23695210  0.10570333  0.37125525    -0.09800
H195        H  0.25067036  0.11368425  0.25761839     0.09880
H196        H  0.20236971  0.05829049  0.40111142     0.07410
H197        H  0.24819821  0.11348195  0.34784412     0.07260
C198        C  0.24278716  0.95409247  0.29963350     0.04290
C199        C  0.24316891  0.94320535  0.26824567    -0.11860
C200        C  0.23120403  0.92208504  0.26667303     0.01790
C201        C  0.22259633  0.91184317  0.29881187    -0.10380
C202        C  0.22811489  0.92225767  0.33175229     0.04280
C203        C  0.23669683  0.94361949  0.33099257    -0.09800
H204        H  0.25182278  0.95160086  0.24485605     0.09880
H205        H  0.21072475  0.89576683  0.29787423     0.07410
H206        H  0.23912329  0.95247284  0.35471878     0.07260
C207        C  0.24060190  0.04253046  0.30107799     0.04290
C208        C  0.23988699  0.05345819  0.27003355    -0.11860
C209        C  0.22666907  0.07393242  0.26916511     0.01790
C210        C  0.21815989  0.08370351  0.30174088    -0.10380
C211        C  0.22449977  0.07349947  0.33425903     0.04280
C212        C  0.23425963  0.05262887  0.33279903    -0.09800
H213        H  0.24868817  0.04553727  0.24633618     0.09880
H214        H  0.20576904  0.09920879  0.30167966     0.07410
H215        H  0.23736672  0.04391170  0.35626685     0.07260
C216        C  0.24865757  0.87988248  0.39891632     0.04290
C217        C  0.24557677  0.89071558  0.23031274    -0.11860
C218        C  0.23018549  0.91095891  0.23166932     0.01790
C219        C  0.22137400  0.92094248  0.39923033    -0.10380
C220        C  0.22857907  0.91108780  0.36661285     0.04280
C221        C  0.24111785  0.89047135  0.36756450    -0.09800
H222        H  0.25940229  0.88369255  0.25407702     0.09880
H223        H  0.20792551  0.93629553  0.39955066     0.07410
H224        H  0.24726227  0.88290566  0.34349905     0.07260
C225        C  0.26499128  0.85807099  0.39926195     0.04290
C226        C  0.26251610  0.84621738  0.22897352    -0.11860
C227        C  0.28916039  0.82763031  0.22982272     0.01790
C228        C  0.31972921  0.82174571  0.40409751    -0.10380
C229        C  0.30498339  0.82883462  0.37187201     0.04280
C230        C  0.28167132  0.84788550  0.36905076    -0.09800
H231        H  0.23784367  0.85056107  0.25073888     0.09880
H232        H  0.34176149  0.80773516  0.40577839     0.07410
H233        H  0.27405779  0.85352127  0.34329408     0.07260
O234        O  0.24236311  0.81228497  0.32956321    -0.56650
C235        C  0.15190212  0.75507441  0.30316525     0.75980
O236        O  0.29537236  0.79412361  0.25087970    -0.57810
C237        C  0.28966890  0.81267143  0.34674237     0.75950
C238        C  0.35134768  0.75498033  0.30083959     0.78340
Cd239      Cd  0.25728686  0.78040637  0.30126392     1.37470
O240        O  0.17792128  0.76152542  0.33086941    -0.56650
O241        O  0.33022212  0.76042115  0.32900718    -0.55460
C242        C  0.27305230  0.81115368  0.25326777     0.78300
O243        O  0.32760613  0.76073150  0.27283439    -0.57830
O244        O  0.17357016  0.76073734  0.27500851    -0.56280
O245        O  0.31896599  0.79714410  0.34489522    -0.56270
O246        O  0.23512914  0.81282010  0.27545815    -0.55440
C247        C  0.98980987  0.63886636  0.39971676     0.04290
C248        C  0.98509274  0.64958922  0.23058397    -0.11860
C249        C  0.95750788  0.66797926  0.22986349     0.01790
C250        C  0.93140323  0.67446749  0.40125610    -0.10380
C251        C  0.95147612  0.66802828  0.37027684     0.04280
C252        C  0.97702146  0.64932906  0.36866587    -0.09800
H253        H  0.00641120  0.64526520  0.25446729     0.09880
H254        H  0.90797430  0.68818892  0.40161970     0.07410
H255        H  0.98959477  0.64422704  0.34362840     0.07260
O256        O  0.01337582  0.68516231  0.33128999    -0.56650
C257        C  0.09915182  0.74167110  0.30332727     0.75980
O258        O  0.44509582  0.70174454  0.25203554    -0.57810
C259        C  0.47204147  0.68552716  0.34615902     0.75950
C260        C  0.40113021  0.74258275  0.30067426     0.78340
Cd261      Cd  0.99367842  0.71631856  0.30199164     1.37460
O262        O  0.07678240  0.73573856  0.33119738    -0.56650
O263        O  0.42536650  0.73709647  0.32871102    -0.55460
C264        C  0.97282716  0.68468121  0.25420337     0.78300
O265        O  0.42175696  0.73687965  0.27250570    -0.57830
O266        O  0.07382759  0.73548003  0.27529175    -0.56280
O267        O  0.44340788  0.70127642  0.34518465    -0.56270
O268        O  0.01414695  0.68392529  0.27614473    -0.55440
O269        O  0.41305873  0.26427271  0.32927273    -0.56650
C270        C  0.03032364  0.31274826  0.34335129     0.75980
O271        O  0.06037916  0.25754620  0.27143969    -0.57810
C272        C  0.38499397  0.25841774  0.30187623     0.75950
C273        C  0.51035514  0.31011074  0.24955870     0.78340
Cd274      Cd  0.49462399  0.28014069  0.29845635     1.37470
O275        O  0.48428384  0.31163342  0.32900176    -0.56650
O276        O  0.47438337  0.31254000  0.27260749    -0.55460
C277        C  0.08220242  0.25168654  0.29996166     0.78300
O278        O  0.04062258  0.29430025  0.24926876    -0.57830
O279        O  0.05882000  0.29703803  0.34117606    -0.56280
O280        O  0.40688040  0.26309597  0.27329857    -0.56270
O281        O  0.06194419  0.25842903  0.32754524    -0.55440
C282        C  0.51575689  0.35767118  0.39522193     0.04290
C283        C  0.50263336  0.34520468  0.22491399    -0.11860
C284        C  0.52816142  0.32642846  0.22631589     0.01790
C285        C  0.57245302  0.32161670  0.39731234    -0.10380
C286        C  0.55470838  0.32891655  0.36573317     0.04280
C287        C  0.53084188  0.34793116  0.36423187    -0.09800
H288        H  0.47597990  0.34955772  0.24574482     0.09880
H289        H  0.59427528  0.30753390  0.39782996     0.07410
H290        H  0.52234289  0.35409714  0.33891919     0.07260
O291        O  0.21710125  0.18432901  0.27446204    -0.56650
C292        C  0.13095434  0.23862228  0.30108010     0.75980
O293        O  0.28163122  0.20496129  0.35304993    -0.57810
C294        C  0.26282732  0.18673495  0.25789816     0.75950
C295        C  0.33114344  0.24585794  0.30289017     0.78340
Cd296      Cd  0.23482085  0.21715924  0.30348162     1.37460
O297        O  0.15308091  0.23258311  0.27366956    -0.56650
O298        O  0.30468036  0.23966456  0.27513080    -0.55460
C299        C  0.25957547  0.18686641  0.35026775     0.78300
O300        O  0.31051958  0.23991304  0.33128810    -0.57830
O301        O  0.15467322  0.23369694  0.32954829    -0.56280
O302        O  0.28966334  0.20407611  0.25966473    -0.56270
O303        O  0.21826181  0.18354762  0.32843832    -0.55440
C304        C  0.25463904  0.13955591  0.20277771     0.04290
C305        C  0.25617068  0.15108407  0.23404088    -0.11860
C306        C  0.28126657  0.17103755  0.23475346     0.01790
C307        C  0.31054033  0.17808787  0.20644694    -0.10380
C308        C  0.27875178  0.17106608  0.37347793     0.04280
C309        C  0.25410795  0.15100817  0.37267496    -0.09800
H310        H  0.23509398  0.14542504  0.25681137     0.09880
H311        H  0.33307761  0.19300276  0.20789785     0.07410
H312        H  0.23166212  0.14533386  0.34921754     0.07260
C313        C  0.99508884  0.38035973  0.39690783     0.04290
C314        C  0.99132360  0.39105955  0.22780642    -0.11860
C315        C  0.97386335  0.41112584  0.22887541     0.01790
C316        C  0.96031264  0.42062054  0.39598998    -0.10380
C317        C  0.97284249  0.41107253  0.36395173     0.04280
C318        C  0.99048040  0.39109522  0.36545851    -0.09800
H319        H  0.00393631  0.38408064  0.25182219     0.09880
H320        H  0.94424770  0.43561659  0.39525535     0.07410
H321        H  0.00381624  0.38439912  0.34183038     0.07260
C322        C  0.50623261  0.54330587  0.29855682     0.04290
C323        C  0.50820065  0.55409847  0.26740293    -0.11860
C324        C  0.52164196  0.57513838  0.26696758     0.01790
C325        C  0.53043153  0.58539887  0.29983864    -0.10380
C326        C  0.52401638  0.57503193  0.33220180     0.04280
C327        C  0.51312660  0.55377034  0.33047206    -0.09800
H328        H  0.49926046  0.54574454  0.24334969     0.09880
H329        H  0.54282197  0.60145976  0.30010491     0.07410
H330        H  0.50904499  0.54503496  0.35389328     0.07260
C331        C  0.98502670  0.45414780  0.29749497     0.04290
C332        C  0.97996688  0.44356321  0.26564730    -0.11860
C333        C  0.97198544  0.42222428  0.26396030     0.01790
C334        C  0.96614875  0.41178706  0.29625635    -0.10380
C335        C  0.97251475  0.42215836  0.32917795     0.04220
C336        C  0.98289636  0.44339452  0.32872129    -0.09800
H337        H  0.98411311  0.45227856  0.24220560     0.09880
H338        H  0.95626726  0.39556057  0.29576371     0.07410
H339        H  0.99052843  0.45186400  0.35275691     0.07260
C340        C  0.50735482  0.61756323  0.40008881     0.04290
C341        C  0.50684494  0.60636730  0.23074202    -0.11860
C342        C  0.52265863  0.58618181  0.23224878     0.01790
C343        C  0.53388488  0.57637714  0.39989909    -0.10380
C344        C  0.52485047  0.58619826  0.36738634     0.04280
C345        C  0.51142075  0.60671151  0.36857641    -0.09800
H346        H  0.49372281  0.61330632  0.25429646     0.09880
H347        H  0.54699548  0.56096859  0.40000694     0.07410
H348        H  0.50076646  0.61384985  0.34451083     0.07260
C349        C  0.00777418  0.52003305  0.29853487    -0.04180
C350        C  0.04761382  0.50822127  0.28195173    -0.01290
C351        C  0.04062826  0.48678335  0.28191023     0.03700
C352        C  0.99338494  0.47685311  0.29817656    -0.04170
C353        C  0.44916039  0.48843709  0.31351090    -0.01280
C354        C  0.45364853  0.50993955  0.31385196     0.03690
C355        C  0.09674937  0.51810071  0.26546626     0.38340
C356        C  0.40151312  0.47768137  0.33004475     0.38330
C357        C  0.41024040  0.52105838  0.33047882     0.36760
C358        C  0.08323604  0.47496762  0.26591913     0.36760
N359        N  0.37569453  0.52991487  0.34384810    -0.38060
N360        N  0.11716121  0.46558018  0.25305149    -0.38060
N361        N  0.36365661  0.46910700  0.34339421    -0.37510
N362        N  0.13569082  0.52599930  0.25213448    -0.37510
C363        C  0.24469119  0.97681596  0.29916708    -0.04180
C364        C  0.28744210  0.98871976  0.31853696    -0.01290
C365        C  0.28695709  0.01018081  0.31886143     0.03700
C366        C  0.24365248  0.01993306  0.29986367    -0.04170
C367        C  0.20156315  0.00798782  0.28005794    -0.01280
C368        C  0.20213299  0.98664070  0.27967028     0.03690
C369        C  0.33262914  0.97893704  0.33765534     0.38340
C370        C  0.15612663  0.01757800  0.26073148     0.38330
C371        C  0.15742682  0.97479324  0.25982033     0.36760
C372        C  0.33171858  0.02220253  0.33826900     0.36760
N373        N  0.12207169  0.96538277  0.24375776    -0.38060
N374        N  0.36734309  0.03175941  0.35387504    -0.38060
N375        N  0.12020438  0.02522881  0.24511811    -0.37510
N376        N  0.36855463  0.97114113  0.35302555    -0.37510
C377        C  0.23998064  0.11672157  0.40289703     0.04290
C378        C  0.23480666  0.10573877  0.43397382    -0.11860
C379        C  0.22265086  0.08461461  0.43436097     0.01790
C380        C  0.21051755  0.07434208  0.60156754    -0.10380
C381        C  0.21886704  0.08444431  0.56929092     0.04280
C382        C  0.23300296  0.10551798  0.57080487    -0.09800
H383        H  0.24308344  0.11339208  0.45841107     0.09880
H384        H  0.19664684  0.05842428  0.60136910     0.07410
H385        H  0.24308456  0.11308736  0.54709772     0.07260
C386        C  0.23929319  0.95394412  0.49995222     0.04290
C387        C  0.24147855  0.94319495  0.46856768    -0.11860
C388        C  0.23051737  0.92204531  0.46670202     0.01790
C389        C  0.22127801  0.91166423  0.49869009    -0.10380
C390        C  0.22531943  0.92200452  0.53171496     0.04280
C391        C  0.23258275  0.94337959  0.53113456    -0.09800
H392        H  0.25076234  0.95173600  0.44542553     0.09880
H393        H  0.21011333  0.89554934  0.49762371     0.07410
H394        H  0.23372428  0.95218467  0.55488297     0.07260
C395        C  0.23477851  0.04218323  0.50140183     0.04290
C396        C  0.23533683  0.05305162  0.47031334    -0.11860
C397        C  0.22245834  0.07354436  0.46913692     0.01790
C398        C  0.21283941  0.08333528  0.50158334    -0.10380
C399        C  0.21857878  0.07322211  0.53421427     0.04280
C400        C  0.22771945  0.05232457  0.53296856    -0.09800
H401        H  0.24507899  0.04506716  0.44686711     0.09880
H402        H  0.20018615  0.09879491  0.50144403     0.07410
H403        H  0.23008943  0.04363700  0.55649735     0.07260
C404        C  0.25045552  0.88010114  0.59884925     0.04290
C405        C  0.24588442  0.89073668  0.43040530    -0.11860
C406        C  0.23128012  0.91107564  0.43160995     0.01790
C407        C  0.21844482  0.92057643  0.59917142    -0.10380
C408        C  0.22628877  0.91081575  0.56653436     0.04280
C409        C  0.24050556  0.89038356  0.56748571    -0.09800
H410        H  0.25810281  0.88359900  0.45434238     0.09880
H411        H  0.20348485  0.93572252  0.59949847     0.07410
H412        H  0.24565540  0.88264038  0.54343198     0.07260
C413        C  0.27000408  0.85875430  0.59914631     0.04290
C414        C  0.26105600  0.84617008  0.42968184    -0.11860
C415        C  0.28596444  0.82726908  0.43086779     0.01790
C416        C  0.32839582  0.82329874  0.60492685    -0.10380
C417        C  0.31603973  0.83058967  0.57246387     0.04280
C418        C  0.29233637  0.84956701  0.56957099    -0.09800
H419        H  0.23702757  0.85089978  0.45145762     0.09880
H420        H  0.35113114  0.80943772  0.60681039     0.07410
H421        H  0.28856313  0.85585025  0.54398036     0.07260
O422        O  0.24636107  0.81298683  0.53546784    -0.56650
C423        C  0.15193997  0.75638804  0.50755491     0.75980
O424        O  0.29016813  0.79389159  0.45271014    -0.57810
C425        C  0.29725674  0.81423447  0.54834009     0.75950
C426        C  0.34995567  0.75527189  0.50533361     0.78340
Cd427      Cd  0.25784858  0.78149498  0.50518539     1.37470
O428        O  0.17777601  0.76293276  0.53530123    -0.56650
O429        O  0.32847588  0.76073211  0.53339010    -0.55460
C430        C  0.27028648  0.81132781  0.45543523     0.78300
O431        O  0.32726920  0.76132125  0.47722279    -0.57830
O432        O  0.17378865  0.76200127  0.47943608    -0.56280
O433        O  0.32766836  0.79923940  0.54377098    -0.56270
O434        O  0.23559135  0.81392063  0.47918897    -0.55440
C435        C  0.98326851  0.63764951  0.60007412     0.04290
C436        C  0.98918262  0.65057914  0.43080432    -0.11860
C437        C  0.96269926  0.66923285  0.43051038     0.01790
C438        C  0.92083823  0.67232758  0.59858555    -0.10380
C439        C  0.94919038  0.66712115  0.56942296     0.04280
C440        C  0.97740038  0.64887296  0.56906173    -0.09800
H441        H  0.01132069  0.64605900  0.45431351     0.09880
H442        H  0.89651692  0.68584986  0.59798996     0.07410
H443        H  0.99799216  0.64468659  0.54566458     0.07260
O444        O  0.01504942  0.68571866  0.53429643    -0.56650
C445        C  0.09934798  0.74284492  0.50741464     0.75980
O446        O  0.44903200  0.70226271  0.45400640    -0.57810
C447        C  0.46165833  0.68415910  0.54782124     0.75950
C448        C  0.39908226  0.74257334  0.50535638     0.78340
Cd449      Cd  0.99467223  0.71691301  0.50469949     1.37460
O450        O  0.07673866  0.73661964  0.53505314    -0.56650
O451        O  0.42325428  0.73714647  0.53346643    -0.55460
C452        C  0.97753860  0.68571608  0.45546693     0.78300
O453        O  0.41925399  0.73658351  0.47723180    -0.57830
O454        O  0.07456761  0.73673503  0.47917281    -0.56280
O455        O  0.43069900  0.69921914  0.54461492    -0.56270
O456        O  0.01703541  0.68454831  0.47848437    -0.55440
O457        O  0.42604396  0.26396311  0.52817278    -0.56650
C458        C  0.04489010  0.31405939  0.54469020     0.75980
O459        O  0.07452781  0.25829605  0.47227689    -0.57810
C460        C  0.39823640  0.25802185  0.50077443     0.75950
C461        C  0.52588600  0.31044644  0.44920459     0.78340
Cd462      Cd  0.50757001  0.28019382  0.49794416     1.37470
O463        O  0.49147986  0.31229575  0.52515461    -0.56650
O464        O  0.48619265  0.31184769  0.47025074    -0.55460
C465        C  0.09653090  0.25226091  0.50063542     0.78300
O466        O  0.05646878  0.29583808  0.45078381    -0.57830
O467        O  0.07388067  0.29844022  0.54289188    -0.56280
O468        O  0.42033303  0.26266648  0.47222908    -0.56270
O469        O  0.07707030  0.25911091  0.52838824    -0.55440
C470        C  0.50758008  0.35757127  0.59551428     0.04290
C471        C  0.51456011  0.34545967  0.42528646    -0.11860
C472        C  0.54062043  0.32674435  0.42520153     0.01790
C473        C  0.56500017  0.32187900  0.60032961    -0.10380
C474        C  0.55169920  0.32922009  0.56805670     0.04280
C475        C  0.52690128  0.34803599  0.56536590    -0.09800
H476        H  0.49211904  0.34980076  0.44793317     0.09880
H477        H  0.58818698  0.30812282  0.60213139     0.07410
H478        H  0.52204422  0.35443339  0.53987874     0.07260
O479        O  0.22949509  0.18426120  0.47425786    -0.56650
C480        C  0.14469273  0.23888672  0.50138511     0.75980
O481        O  0.29512865  0.20421500  0.55268642    -0.57810
C482        C  0.27503114  0.18629577  0.45742791     0.75950
C483        C  0.34443074  0.24545412  0.50190854     0.78340
Cd484      Cd  0.24814516  0.21691682  0.50312061     1.37460
O485        O  0.16590560  0.23262355  0.47382333    -0.56650
O486        O  0.31771598  0.23924177  0.47423935    -0.55460
C487        C  0.27089848  0.18641604  0.55019152     0.78300
O488        O  0.32406785  0.23956508  0.53041835    -0.57830
O489        O  0.16888914  0.23390943  0.52967649    -0.56280
O490        O  0.30307604  0.20341370  0.45913274    -0.56270
O491        O  0.22957122  0.18357120  0.52823305    -0.55440
C492        C  0.25497272  0.13935018  0.40343137     0.04290
C493        C  0.26655250  0.15057904  0.43473324    -0.11860
C494        C  0.29074725  0.17058745  0.43346424     0.01790
C495        C  0.31067728  0.17785493  0.40257290    -0.10380
C496        C  0.28666969  0.17053157  0.57422643     0.04280
C497        C  0.26129288  0.15059482  0.57213159    -0.09800
H498        H  0.25373164  0.14493570  0.45958414     0.09880
H499        H  0.33327555  0.19275671  0.40234248     0.07410
H500        H  0.24370328  0.14506482  0.54732287     0.07260
C501        C  0.99667829  0.38040873  0.59622120     0.04290
C502        C  0.98653004  0.39095223  0.42812343    -0.11860
C503        C  0.96895687  0.41101608  0.42876553     0.01790
C504        C  0.96252790  0.42073014  0.59642851    -0.10380
C505        C  0.97100408  0.41098908  0.56387360     0.04280
C506        C  0.98697866  0.39074712  0.56481179    -0.09800
H507        H  0.99677346  0.38400795  0.45242405     0.09880
H508        H  0.94701728  0.43581596  0.59647046     0.07410
H509        H  0.99391221  0.38334904  0.54065298     0.07260
C510        C  0.51240492  0.54328566  0.49879366     0.04290
C511        C  0.51353630  0.55406487  0.46762847    -0.11860
C512        C  0.52609567  0.57516374  0.46711768     0.01790
C513        C  0.53510937  0.58538544  0.50005360    -0.10380
C514        C  0.52892383  0.57499040  0.53241315     0.04280
C515        C  0.51913546  0.55372178  0.53069216    -0.09800
H516        H  0.50433601  0.54562767  0.44370411     0.09880
H517        H  0.54736305  0.60144433  0.50048136     0.07410
H518        H  0.51537625  0.54495893  0.55410299     0.07260
C519        C  0.97776265  0.45411940  0.49711087     0.04290
C520        C  0.97220068  0.44349225  0.46533457    -0.11860
C521        C  0.96560707  0.42214058  0.46375958     0.01790
C522        C  0.96065168  0.41174181  0.49615309    -0.10380
C523        C  0.96805106  0.42210163  0.52906121     0.04220
C524        C  0.97746585  0.44339338  0.52840418    -0.09800
H525        H  0.97518586  0.45221764  0.44185660     0.09880
H526        H  0.95065569  0.39554779  0.49567957     0.07410
H527        H  0.98593852  0.45196083  0.55225546     0.07260
C528        C  0.50450587  0.61701432  0.59962425     0.04290
C529        C  0.51226844  0.60675850  0.43139408    -0.11860
C530        C  0.52568558  0.58627636  0.43236351     0.01790
C531        C  0.53592543  0.57638614  0.60020511    -0.10380
C532        C  0.52777114  0.58612134  0.56751667     0.04280
C533        C  0.51240378  0.60641414  0.56833927    -0.09800
H534        H  0.50225862  0.61390236  0.45535077     0.09880
H535        H  0.55030521  0.56113937  0.60072238     0.07410
H536        H  0.50333940  0.61351108  0.54405814     0.07260
C537        C  0.99979486  0.52001749  0.49776445    -0.04180
C538        C  0.03879787  0.50822674  0.48040448    -0.01290
C539        C  0.03197025  0.48679935  0.48044604     0.03700
C540        C  0.98569599  0.47683426  0.49757421    -0.04170
C541        C  0.45465837  0.48859186  0.51361886    -0.01280
C542        C  0.45953326  0.51006654  0.51404248     0.03690
C543        C  0.08697964  0.51810882  0.46299699     0.38340
C544        C  0.40656274  0.47793934  0.52989205     0.38330
C545        C  0.41631618  0.52126992  0.53069523     0.36760
C546        C  0.07381432  0.47503821  0.46359576     0.36760
N547        N  0.38199621  0.53020408  0.54412450    -0.38060
N548        N  0.10707058  0.46570005  0.44999067    -0.38060
N549        N  0.36836807  0.46944865  0.54304991    -0.37510
N550        N  0.12508738  0.52601503  0.44889223    -0.37510
C551        C  0.24037152  0.97661672  0.49965255    -0.04180
C552        C  0.28199761  0.98860427  0.51971286    -0.01290
C553        C  0.28092601  0.01002541  0.52005541     0.03700
C554        C  0.23813352  0.01963563  0.50039577    -0.04170
C555        C  0.19702374  0.00760882  0.48002036    -0.01280
C556        C  0.19820728  0.98629234  0.47959692     0.03690
C557        C  0.32663730  0.97895632  0.53955404     0.38340
C558        C  0.15201382  0.01707655  0.46010486     0.38330
C559        C  0.15459846  0.97432007  0.45908662     0.36760
C560        C  0.32456013  0.02214938  0.54019885     0.36760
N561        N  0.12014404  0.96481147  0.44249590    -0.38060
N562        N  0.35921554  0.03179146  0.55642430    -0.38060
N563        N  0.11643647  0.02462470  0.44402396    -0.37510
N564        N  0.36208024  0.97126898  0.55552814    -0.37510
C565        C  0.23845373  0.11659650  0.60237867     0.04290
C566        C  0.23466577  0.10565807  0.63361144    -0.11860
C567        C  0.22041943  0.08464159  0.63424954     0.01790
C568        C  0.21383016  0.07440730  0.80190748    -0.10380
C569        C  0.21975800  0.08456539  0.76943705     0.04280
C570        C  0.23229483  0.10574445  0.77085124    -0.09800
H571        H  0.24608636  0.11326179  0.65785633     0.09880
H572        H  0.20123871  0.05839632  0.80211482     0.07410
H573        H  0.24059678  0.11345993  0.74706651     0.07260
C574        C  0.23451723  0.95378166  0.69974567     0.04290
C575        C  0.23694645  0.94307097  0.66835927    -0.11860
C576        C  0.22780550  0.92185122  0.66661481     0.01790
C577        C  0.21961654  0.91141829  0.69866005    -0.10380
C578        C  0.22306342  0.92178267  0.73172632     0.04280
C579        C  0.22874179  0.94319515  0.73096849    -0.09800
H580        H  0.24544382  0.95166964  0.64516989     0.09880
H581        H  0.20968671  0.89526703  0.69741741     0.07410
H582        H  0.22939816  0.95209349  0.75455993     0.07260
C583        C  0.23129189  0.04209120  0.70115712     0.04290
C584        C  0.23167893  0.05292976  0.67004883    -0.11860
C585        C  0.22048394  0.07358635  0.66903298     0.01790
C586        C  0.21251485  0.08351738  0.70157274    -0.10380
C587        C  0.21821914  0.07335902  0.73421703     0.04280
C588        C  0.22574627  0.05233722  0.73279739    -0.09800
H589        H  0.24020053  0.04483048  0.64649139     0.09880
H590        H  0.20107930  0.09911375  0.70132183     0.07410
H591        H  0.22805576  0.04357498  0.75622000     0.07260
C592        C  0.24448644  0.87936765  0.79895544     0.04290
C593        C  0.24651168  0.89080538  0.63037264    -0.11860
C594        C  0.22952903  0.91087478  0.63157298     0.01790
C595        C  0.21959996  0.92065587  0.79950175    -0.10380
C596        C  0.22448255  0.91064888  0.76672365     0.04280
C597        C  0.23563586  0.88988805  0.76763680    -0.09800
H598        H  0.25949999  0.88372376  0.65425981     0.09880
H599        H  0.20702935  0.93609727  0.80024100     0.07410
H600        H  0.23958351  0.88212963  0.74370181     0.07260
C601        C  0.26010048  0.85745826  0.79902834     0.04290
C602        C  0.26342050  0.84627047  0.62865339    -0.11860
C603        C  0.28998147  0.82767250  0.63004623     0.01790
C604        C  0.31476087  0.82107699  0.80272780    -0.10380
C605        C  0.29780190  0.82804731  0.77080724     0.04280
C606        C  0.27433973  0.84709073  0.76841370    -0.09800
H607        H  0.23599983  0.85033799  0.64930675     0.09880
H608        H  0.33690864  0.80708123  0.80397795     0.07410
H609        H  0.26510780  0.85260031  0.74284659     0.07260
O610        O  0.23608843  0.81176383  0.72762497    -0.56650
C611        C  0.14631495  0.75447786  0.70066533     0.75980
O612        O  0.29247522  0.79370076  0.64960140    -0.57810
C613        C  0.28265574  0.81193277  0.74552291     0.75950
C614        C  0.34638086  0.75452157  0.70010290     0.78340
Cd615      Cd  0.25190395  0.77985012  0.69933914     1.37470
O616        O  0.17218036  0.76094131  0.72840286    -0.56650
O617        O  0.32481234  0.76017177  0.72800235    -0.55460
C618        C  0.27103065  0.81087813  0.65218587     0.78300
O619        O  0.32287031  0.75998865  0.67183787    -0.57830
O620        O  0.16816139  0.76015799  0.67255655    -0.56280
O621        O  0.31157144  0.79629395  0.74400413    -0.56270
O622        O  0.23185693  0.81249701  0.67358695    -0.55440
C623        C  0.99174500  0.63853440  0.79949299     0.04290
C624        C  0.97424037  0.64850914  0.63113251    -0.11860
C625        C  0.94677325  0.66690590  0.62950298     0.01790
C626        C  0.93159416  0.67371091  0.80121392    -0.10380
C627        C  0.95200828  0.66750290  0.77017637     0.04280
C628        C  0.97835658  0.64894457  0.76845588    -0.09800
H629        H  0.99197806  0.64403926  0.65590624     0.09880
H630        H  0.90719429  0.68719934  0.80173494     0.07410
H631        H  0.99088951  0.64388952  0.74337959     0.07260
O632        O  0.00935397  0.68420060  0.72827598    -0.56650
C633        C  0.09353148  0.74105471  0.70088922     0.75980
O634        O  0.44326953  0.70140661  0.65206609    -0.57810
C635        C  0.46585051  0.68504868  0.74639042     0.75950
C636        C  0.39636919  0.74220048  0.70050196     0.78340
Cd637      Cd  0.98774225  0.71571686  0.70048004     1.37460
O638        O  0.07135125  0.73521270  0.72885013    -0.56650
O639        O  0.42059079  0.73706389  0.72877485    -0.55460
C640        C  0.96237042  0.68373084  0.65355511     0.78300
O641        O  0.41717476  0.73621043  0.67257209    -0.57830
O642        O  0.06796294  0.73476235  0.67296792    -0.56280
O643        O  0.43627158  0.70055203  0.74475811    -0.56270
O644        O  0.00628930  0.68354488  0.67369168    -0.55440
O645        O  0.41877972  0.26418038  0.72982708    -0.56650
C646        C  0.03544963  0.31284855  0.74369836     0.75980
O647        O  0.06658958  0.25781342  0.67109593    -0.57810
C648        C  0.39110768  0.25839306  0.70225372     0.75950
C649        C  0.51384339  0.31048262  0.65045753     0.78340
Cd650      Cd  0.50038583  0.28043795  0.69952010     1.37470
O651        O  0.48814553  0.31156136  0.73044102    -0.56650
O652        O  0.47797446  0.31263781  0.67365517    -0.55460
C653        C  0.08834677  0.25182680  0.69955391     0.78300
O654        O  0.04578493  0.29477951  0.64917758    -0.57830
O655        O  0.06434620  0.29723415  0.74152414    -0.56280
O656        O  0.41328097  0.26322809  0.67383371    -0.56270
O657        O  0.06799117  0.25846549  0.72718460    -0.55440
C658        C  0.51340396  0.35767234  0.79546029     0.04290
C659        C  0.50254011  0.34528848  0.62533934    -0.11860
C660        C  0.52910252  0.32670223  0.62645617     0.01790
C661        C  0.56937419  0.32158303  0.79973615    -0.10380
C662        C  0.55674747  0.32926667  0.76760598     0.04280
C663        C  0.53323646  0.34832089  0.76530081    -0.09800
H664        H  0.47748786  0.34964566  0.64690287     0.09880
H665        H  0.59121840  0.30751428  0.80110801     0.07410
H666        H  0.52912130  0.35494554  0.73994645     0.07260
O667        O  0.22273749  0.18416831  0.67460841    -0.56650
C668        C  0.13710400  0.23872501  0.70058116     0.75980
O669        O  0.28904878  0.20471577  0.75232255    -0.57810
C670        C  0.26790732  0.18640320  0.65750051     0.75950
C671        C  0.33734491  0.24576903  0.70289656     0.78340
Cd672      Cd  0.24106701  0.21711538  0.70294905     1.37460
O673        O  0.15935966  0.23276908  0.67315393    -0.56650
O674        O  0.31142386  0.23955843  0.67496912    -0.55460
C675        C  0.26539337  0.18683131  0.75004531     0.78300
O676        O  0.31622673  0.23982081  0.73115575    -0.57830
O677        O  0.16069272  0.23366712  0.72901219    -0.56280
O678        O  0.29485187  0.20374122  0.65864210    -0.56270
O679        O  0.22374167  0.18377699  0.72836298    -0.55440
C680        C  0.25464945  0.13916955  0.60293024     0.04290
C681        C  0.25952328  0.15064652  0.63429752    -0.11860
C682        C  0.28524282  0.17050644  0.63434911     0.01790
C683        C  0.31241519  0.17737357  0.60520894    -0.10380
C684        C  0.28223087  0.17108071  0.77403024     0.04280
C685        C  0.25799346  0.15099545  0.77204047    -0.09800
H686        H  0.24020138  0.14518152  0.65772052     0.09880
H687        H  0.33583834  0.19213651  0.60615572     0.07410
H688        H  0.24037088  0.14536466  0.74730527     0.07260
C689        C  0.99615889  0.38019512  0.79670524     0.04290
C690        C  0.99180780  0.39114910  0.62772062    -0.11860
C691        C  0.97399463  0.41115280  0.62889127     0.01790
C692        C  0.96282830  0.42064000  0.79604670    -0.10380
C693        C  0.97441713  0.41101074  0.76391788     0.04280
C694        C  0.99093580  0.39089405  0.76526331    -0.09800
H695        H  0.00506021  0.38424872  0.65168934     0.09880
H696        H  0.94731935  0.43572024  0.79538742     0.07410
H697        H  0.00265089  0.38405746  0.74143345     0.07260
C698        C  0.51047369  0.54330413  0.69881741     0.04290
C699        C  0.51232571  0.55404077  0.66762369    -0.11860
C700        C  0.52482391  0.57512855  0.66712333     0.01790
C701        C  0.53303643  0.58544805  0.69999062    -0.10380
C702        C  0.52660830  0.57510068  0.73236443     0.04280
C703        C  0.51669788  0.55381216  0.73069247    -0.09800
H704        H  0.50371024  0.54561117  0.64362321     0.09880
H705        H  0.54486601  0.60154632  0.70027490     0.07410
H706        H  0.51257392  0.54508467  0.75411719     0.07260
C707        C  0.98826599  0.45407619  0.69752922     0.04290
C708        C  0.98227534  0.44354524  0.66565841    -0.11860
C709        C  0.97300395  0.42225289  0.66396876     0.01790
C710        C  0.96694271  0.41181614  0.69623043    -0.10380
C711        C  0.97426003  0.42212588  0.72917193     0.04220
C712        C  0.98588560  0.44330773  0.72873934    -0.09800
H713        H  0.98661100  0.45222775  0.64217976     0.09880
H714        H  0.95616745  0.39564000  0.69563628     0.07410
H715        H  0.99417380  0.45172317  0.75278038     0.07260
C716        C  0.50521301  0.61743223  0.79981696     0.04290
C717        C  0.50900334  0.60631781  0.63103132    -0.11860
C718        C  0.52502884  0.58615409  0.63237358     0.01790
C719        C  0.53445132  0.57652543  0.80007717    -0.10380
C720        C  0.52595307  0.58628335  0.76746166     0.04280
C721        C  0.51134103  0.60667836  0.76841863    -0.09800
H722        H  0.49642613  0.61324967  0.65469903     0.09880
H723        H  0.54833874  0.56121322  0.80046924     0.07410
H724        H  0.50153687  0.61376987  0.74420735     0.07260
C725        C  0.01261173  0.51988554  0.69873035    -0.04180
C726        C  0.05212755  0.50799089  0.68204769    -0.01290
C727        C  0.04467849  0.48655804  0.68195159     0.03700
C728        C  0.99729915  0.47675067  0.69827511    -0.04170
C729        C  0.45242177  0.48859038  0.71356487    -0.01280
C730        C  0.45736944  0.51007375  0.71398969     0.03690
C731        C  0.10127766  0.51778329  0.66545420     0.38340
C732        C  0.40436178  0.47794512  0.72988066     0.38330
C733        C  0.41400776  0.52129074  0.73047029     0.36760
C734        C  0.08683999  0.47462179  0.66578938     0.36760
N735        N  0.37953361  0.53023259  0.74373681    -0.38060
N736        N  0.12041330  0.46513959  0.65278349    -0.38060
N737        N  0.36619163  0.46945852  0.74306871    -0.37510
N738        N  0.14025101  0.52560666  0.65204455    -0.37510
C739        C  0.23547478  0.97645760  0.69955318    -0.04180
C740        C  0.27763125  0.98839210  0.71929815    -0.01290
C741        C  0.27696836  0.00981658  0.71956692     0.03700
C742        C  0.23395118  0.01950534  0.70022783    -0.04170
C743        C  0.19212365  0.00753067  0.68027617    -0.01280
C744        C  0.19299116  0.98618991  0.67986011     0.03690
C745        C  0.32240335  0.97867687  0.73891632     0.38340
C746        C  0.14678009  0.01708537  0.66080873     0.38330
C747        C  0.14881923  0.97424779  0.65974613     0.36760
C748        C  0.32131027  0.02186124  0.73928930     0.36760
N749        N  0.11387169  0.96476158  0.64348931    -0.38060
N750        N  0.35652882  0.03143830  0.75518570    -0.38060
N751        N  0.11090257  0.02470722  0.64510566    -0.37510
N752        N  0.35789729  0.97092214  0.75473455    -0.37510
C753        C  0.23830401  0.11683357  0.80240899     0.04290
C754        C  0.23686142  0.10587999  0.83367576    -0.11860
C755        C  0.22440246  0.08478793  0.83445114     0.01790
C756        C  0.21395509  0.07430766  0.00148368    -0.10380
C757        C  0.22332027  0.08448303  0.96938099     0.04280
C758        C  0.23714653  0.10557473  0.97112062    -0.09800
H759        H  0.24871732  0.11355249  0.85781804     0.09880
H760        H  0.20057623  0.05834373  0.00100302     0.07410
H761        H  0.24852511  0.11322673  0.94763128     0.07260
C762        C  0.24440078  0.95402399  0.89969379     0.04290
C763        C  0.24519385  0.94306670  0.86837696    -0.11860
C764        C  0.23217990  0.92199417  0.86676693     0.01790
C765        C  0.22273700  0.91183019  0.89888452    -0.10380
C766        C  0.22826284  0.92226953  0.93176891     0.04280
C767        C  0.23737333  0.94360279  0.93103352    -0.09800
H768        H  0.25467463  0.95139438  0.84503543     0.09880
H769        H  0.21022186  0.89579610  0.89807223     0.07410
H770        H  0.23950238  0.95243558  0.95479109     0.07260
C771        C  0.24127044  0.04245977  0.90120852     0.04290
C772        C  0.24079232  0.05341781  0.87018191    -0.11860
C773        C  0.22667477  0.07379025  0.86922071     0.01790
C774        C  0.21751682  0.08351370  0.90174716    -0.10380
C775        C  0.22398565  0.07335534  0.93427683     0.04280
C776        C  0.23417951  0.05252001  0.93289556    -0.09800
H777        H  0.25030587  0.04558075  0.84653225     0.09880
H778        H  0.20458335  0.09895393  0.90169461     0.07410
H779        H  0.23709755  0.04383438  0.95641349     0.07260
C780        C  0.25084782  0.88020457  0.99894632     0.04290
C781        C  0.24400213  0.89036923  0.83045265    -0.11860
C782        C  0.23065762  0.91084096  0.83175910     0.01790
C783        C  0.21992477  0.92085461  0.99908292    -0.10380
C784        C  0.22853074  0.91111121  0.96657011     0.04280
C785        C  0.24266291  0.89067537  0.96757085    -0.09800
H786        H  0.25695054  0.88324723  0.85427132     0.09880
H787        H  0.20534126  0.93606304  0.99918746     0.07410
H788        H  0.24942880  0.88317502  0.94350987     0.07260
C789        C  0.26931555  0.85867745  0.99935946     0.04290
C790        C  0.25829429  0.84569313  0.82967114    -0.11860
C791        C  0.28318261  0.82677349  0.83037221     0.01790
C792        C  0.32662006  0.82295800  0.00494096    -0.10380
C793        C  0.31291558  0.83000722  0.97251362     0.04280
C794        C  0.28915943  0.84897562  0.96950821    -0.09800
H795        H  0.23597983  0.85054818  0.85206246     0.09880
H796        H  0.34916244  0.80905679  0.00682077     0.07410
H797        H  0.28316383  0.85479356  0.94373322     0.07260
O798        O  0.24476227  0.81247697  0.93447752    -0.56650
C799        C  0.15159361  0.75558833  0.90721302     0.75980
O800        O  0.28980834  0.79359486  0.85269452    -0.57810
C801        C  0.29491570  0.81357588  0.94838461     0.75950
C802        C  0.35031439  0.75502224  0.90425938     0.78340
Cd803      Cd  0.25721823  0.78085232  0.90487733     1.37470
O804        O  0.17752274  0.76206781  0.93496313    -0.56650
O805        O  0.32885260  0.76023178  0.93246747    -0.55460
C806        C  0.26893522  0.81087246  0.85528975     0.78300
O807        O  0.32722122  0.76114808  0.87632395    -0.57830
O808        O  0.17336346  0.76125471  0.87910183    -0.56280
O809        O  0.32514488  0.79843814  0.94465900    -0.56270
O810        O  0.23414278  0.81326970  0.87906002    -0.55440
C811        C  0.98575965  0.63806998  0.99959731     0.04290
C812        C  0.99073480  0.65019663  0.83059332    -0.11860
C813        C  0.96330878  0.66864675  0.83038741     0.01790
C814        C  0.92476133  0.67309129  0.00026175    -0.10380
C815        C  0.94747621  0.66710555  0.96971597     0.04280
C816        C  0.97451648  0.64866965  0.96846941    -0.09800
H817        H  0.01329152  0.64580888  0.85404332     0.09880
H818        H  0.90079885  0.68669821  0.00032442     0.07410
H819        H  0.99018807  0.64400695  0.94389160     0.07260
O820        O  0.01305819  0.68547882  0.93439169    -0.56650
C821        C  0.09889974  0.74210631  0.90706188     0.75980
O822        O  0.44649991  0.70206245  0.85352218    -0.57810
C823        C  0.46772638  0.68474651  0.94731642     0.75950
C824        C  0.39985141  0.74251083  0.90394696     0.78340
Cd825      Cd  0.99384966  0.71642595  0.90428428     1.37460
O826        O  0.07625809  0.73588280  0.93469713    -0.56650
O827        O  0.42396922  0.73685691  0.93191292    -0.55460
C828        C  0.97766497  0.68518083  0.85527722     0.78300
O829        O  0.42044874  0.73691090  0.87570194    -0.57830
O830        O  0.07398034  0.73609389  0.87880718    -0.56280
O831        O  0.43817062  0.70025566  0.94590859    -0.56270
O832        O  0.01683538  0.68407931  0.87851421    -0.55440
O833        O  0.41747976  0.26417267  0.92894137    -0.56650
C834        C  0.03535556  0.31324125  0.94414712     0.75980
O835        O  0.06533991  0.25764270  0.87256105    -0.57810
C836        C  0.38951885  0.25819020  0.90160153     0.75950
C837        C  0.51639238  0.31009124  0.84928839     0.78340
Cd838      Cd  0.49896115  0.28007494  0.89823748     1.37470
O839        O  0.48578410  0.31186623  0.92716339    -0.56650
O840        O  0.47867694  0.31216205  0.87141645    -0.55460
C841        C  0.08729632  0.25183158  0.90108142     0.78300
O842        O  0.04800404  0.29483249  0.85066176    -0.57830
O843        O  0.06393167  0.29752172  0.94245176    -0.56280
O844        O  0.41147520  0.26274800  0.87298481    -0.56270
O845        O  0.06748582  0.25873730  0.92868319    -0.55440
C846        C  0.51125169  0.35763863  0.99543945     0.04290
C847        C  0.50764020  0.34519885  0.82499699    -0.11860
C848        C  0.53330603  0.32642075  0.82581556     0.01790
C849        C  0.56935272  0.32194890  0.99829763    -0.10380
C850        C  0.55211518  0.32909193  0.96651868     0.04280
C851        C  0.52725597  0.34791584  0.96464675    -0.09800
H852        H  0.48232260  0.34951496  0.84647185     0.09880
H853        H  0.59219555  0.30809258  0.99918530     0.07410
H854        H  0.51908854  0.35401111  0.93923880     0.07260
O855        O  0.22073630  0.18417522  0.87545212    -0.56650
C856        C  0.13577731  0.23865170  0.90211225     0.75980
O857        O  0.28835019  0.20458456  0.95280754    -0.57810
C858        C  0.26539855  0.18660830  0.85792294     0.75950
C859        C  0.33569756  0.24564416  0.90280604     0.78340
Cd860      Cd  0.23941626  0.21704564  0.90398483     1.37460
O861        O  0.15739651  0.23248882  0.87462855    -0.56650
O862        O  0.30917447  0.23931109  0.87515186    -0.55460
C863        C  0.26504077  0.18665012  0.95046232     0.78300
O864        O  0.31514159  0.23987200  0.93132338    -0.57830
O865        O  0.15981953  0.23376086  0.93050831    -0.56280
O866        O  0.29217781  0.20396959  0.85913994    -0.56270
O867        O  0.22272834  0.18360910  0.92924843    -0.55440
C868        C  0.25271863  0.13950693  0.80285819     0.04290
C869        C  0.25751645  0.15095680  0.83424691    -0.11860
C870        C  0.28228427  0.17093914  0.83422312     0.01790
C871        C  0.30820545  0.17807837  0.80484797    -0.10380
C872        C  0.28351181  0.17077001  0.97371246     0.04280
C873        C  0.25837519  0.15078856  0.97247539    -0.09800
H874        H  0.23904992  0.14530770  0.85780965     0.09880
H875        H  0.33084340  0.19298127  0.80566532     0.07410
H876        H  0.23736182  0.14520505  0.94854041     0.07260
C877        C  0.99529182  0.38052795  0.99669933     0.04290
C878        C  0.98870940  0.39087280  0.82802261    -0.11860
C879        C  0.97157907  0.41100004  0.82878465     0.01790
C880        C  0.96033274  0.42077834  0.99619320    -0.10380
C881        C  0.97135925  0.41116327  0.96393297     0.04280
C882        C  0.98884534  0.39114355  0.96523560    -0.09800
H883        H  0.99956014  0.38390443  0.85226079     0.09880
H884        H  0.94439328  0.43580182  0.99581592     0.07410
H885        H  0.00049411  0.38432738  0.94137321     0.07260
C886        C  0.51031789  0.54331220  0.89858718     0.04290
C887        C  0.51151592  0.55415596  0.86747178    -0.11860
C888        C  0.52472436  0.57521874  0.86704264     0.01790
C889        C  0.53410948  0.58540735  0.89994712    -0.10380
C890        C  0.52818246  0.57498002  0.93228983     0.04280
C891        C  0.51776343  0.55371762  0.93052116    -0.09800
H892        H  0.50193589  0.54582072  0.84347069     0.09880
H893        H  0.54644553  0.60146899  0.90030267     0.07410
H894        H  0.51415642  0.54494949  0.95393570     0.07260
C895        C  0.98059039  0.45415815  0.89712657     0.04290
C896        C  0.97548587  0.44349777  0.86536332    -0.11860
C897        C  0.96854025  0.42214142  0.86380284     0.01790
C898        C  0.96313352  0.41177393  0.89620877    -0.10380
C899        C  0.96971542  0.42220785  0.92908425     0.04220
C900        C  0.97932337  0.44347512  0.92844276    -0.09800
H901        H  0.97904955  0.45220272  0.84189177     0.09880
H902        H  0.95345642  0.39554806  0.89585182     0.07410
H903        H  0.98719024  0.45203030  0.95236698     0.07260
C904        C  0.50783978  0.61719189  0.99996859     0.04290
C905        C  0.50986511  0.60667195  0.83120154    -0.11860
C906        C  0.52465767  0.58634277  0.83235264     0.01790
C907        C  0.53728684  0.57633125  0.00003976    -0.10380
C908        C  0.52830496  0.58610141  0.96746467     0.04280
C909        C  0.51359832  0.60646747  0.96853352    -0.09800
H910        H  0.49855613  0.61369497  0.85504781     0.09880
H911        H  0.55113733  0.56101376  0.00028496     0.07410
H912        H  0.50314391  0.61353638  0.94439227     0.07260
C913        C  0.00373163  0.52002819  0.89783489    -0.04180
C914        C  0.04290623  0.50815141  0.88079674    -0.01290
C915        C  0.03571175  0.48672861  0.88081744     0.03700
C916        C  0.98888443  0.47686295  0.89758119    -0.04170
C917        C  0.45209160  0.48863371  0.91376006    -0.01280
C918        C  0.45727978  0.51012273  0.91419133     0.03690
C919        C  0.09157708  0.51793656  0.86371558     0.38340
C920        C  0.40441811  0.47806137  0.93056335     0.38330
C921        C  0.41472882  0.52139674  0.93133074     0.36760
C922        C  0.07772134  0.47486636  0.86433535     0.36760
N923        N  0.38092548  0.53038534  0.94513574    -0.38060
N924        N  0.11111342  0.46544328  0.85103234    -0.38060
N925        N  0.36654287  0.46964139  0.94413544    -0.37510
N926        N  0.13008500  0.52575594  0.84985869    -0.37510
C927        C  0.24640439  0.97675493  0.89911500    -0.04180
C928        C  0.28823013  0.98869121  0.91915144    -0.01290
C929        C  0.28746775  0.01014906  0.91952883     0.03700
C930        C  0.24477866  0.01987190  0.89993692    -0.04170
C931        C  0.20371191  0.00789261  0.87942275    -0.01280
C932        C  0.20459793  0.98655839  0.87895765     0.03690
C933        C  0.33275298  0.97895267  0.93893936     0.38340
C934        C  0.15889877  0.01741380  0.85942245     0.38330
C935        C  0.16088232  0.97470811  0.85832963     0.36760
C936        C  0.33132199  0.02219214  0.93963299     0.36760
N937        N  0.12635709  0.96530536  0.84162342    -0.38060
N938        N  0.36620464  0.03176130  0.95580807    -0.38060
N939        N  0.12350078  0.02499662  0.84324602    -0.37510
N940        N  0.36813856  0.97120051  0.95485826    -0.37510
C941        C  0.74086934  0.11712825  0.00255731     0.04290
C942        C  0.73586380  0.10615639  0.03368253    -0.11860
C943        C  0.72260150  0.08506774  0.03413457     0.01790
C944        C  0.71397532  0.07495890  0.20174776    -0.10380
C945        C  0.71990435  0.08505853  0.16922645     0.04280
C946        C  0.73309357  0.10620899  0.17052950    -0.09800
H947        H  0.74528457  0.11379749  0.05805759     0.09880
H948        H  0.70061771  0.05901314  0.20202558     0.07410
H949        H  0.74040816  0.11391083  0.14665354     0.07260
C950        C  0.73335992  0.95410452  0.09981952     0.04290
C951        C  0.73664476  0.94338520  0.06849325    -0.11860
C952        C  0.72759981  0.92215324  0.06668695     0.01790
C953        C  0.71898921  0.91173378  0.09870580    -0.10380
C954        C  0.72201040  0.92211732  0.13173357     0.04280
C955        C  0.72704582  0.94351447  0.13099388    -0.09800
H956        H  0.74576239  0.95199509  0.04540837     0.09880
H957        H  0.70913331  0.89555869  0.09758594     0.07410
H958        H  0.72706601  0.95237168  0.15461349     0.07260
C959        C  0.73098868  0.04245287  0.10117624     0.04290
C960        C  0.73256995  0.05330948  0.07009227    -0.11860
C961        C  0.72161836  0.07398825  0.06891964     0.01790
C962        C  0.71293784  0.08392098  0.10136948    -0.10380
C963        C  0.71796589  0.07378351  0.13405578     0.04280
C964        C  0.72481504  0.05272176  0.13272500    -0.09800
H965        H  0.74177813  0.04519519  0.04668222     0.09880
H966        H  0.70144892  0.09950100  0.10105766     0.07410
H967        H  0.72621843  0.04394990  0.15615838     0.07260
C968        C  0.74788764  0.88009631  0.19877602     0.04290
C969        C  0.74581172  0.89095312  0.03053399    -0.11860
C970        C  0.72990275  0.91117816  0.03164926     0.01790
C971        C  0.71810855  0.92087467  0.19947254    -0.10380
C972        C  0.72419650  0.91101331  0.16668565     0.04280
C973        C  0.73798265  0.89052616  0.16752434    -0.09800
H974        H  0.75767915  0.88379144  0.05452281     0.09880
H975        H  0.70396749  0.93612230  0.20020772     0.07410
H976        H  0.74345660  0.88296357  0.14348327     0.07260
C977        C  0.76630575  0.85853762  0.19872814     0.04290
C978        C  0.76300210  0.84638583  0.02937049    -0.11860
C979        C  0.78869158  0.82760327  0.03058011     0.01790
C980        C  0.82539857  0.82312702  0.20232059    -0.10380
C981        C  0.80660932  0.82965495  0.17042331     0.04280
C982        C  0.78144817  0.84841104  0.16807749    -0.09800
H983        H  0.73719066  0.85074534  0.05060048     0.09880
H984        H  0.84866895  0.80937187  0.20349804     0.07410
H985        H  0.77078594  0.85369755  0.14250510     0.07260
O986        O  0.74043013  0.81231099  0.13077841    -0.56650
C987        C  0.64877916  0.75534646  0.10435326     0.75980
O988        O  0.79165936  0.79379817  0.05092958    -0.57810
C989        C  0.78922035  0.81307853  0.14638960     0.75950
C990        C  0.84803735  0.75459553  0.10222553     0.78340
Cd991      Cd  0.75464824  0.78047319  0.10197758     1.37470
O992        O  0.67505539  0.76181372  0.13197882    -0.56650
O993        O  0.82690470  0.76027264  0.13025347    -0.55460
C994        C  0.77092347  0.81109565  0.05366181     0.78300
O995        O  0.82461034  0.76030682  0.07409269    -0.57830
O996        O  0.67031986  0.76095240  0.07612255    -0.56280
O997        O  0.81881175  0.79766491  0.14391965    -0.56270
O998        O  0.73351297  0.81306772  0.07606692    -0.55440
C999        C  0.48419097  0.63856577  0.19903215     0.04290
C1000       C  0.48471619  0.65004689  0.03121497    -0.11860
C1001       C  0.45686854  0.66837802  0.03034381     0.01790
C1002       C  0.42268110  0.67342621  0.20016323    -0.10380
C1003       C  0.44488933  0.66748788  0.16942247     0.04280
C1004       C  0.47164434  0.64900120  0.16792140    -0.09800
H1005       H  0.50531372  0.64569932  0.05529897     0.09880
H1006       H  0.39862922  0.68700581  0.20044872     0.07410
H1007       H  0.48592981  0.64418881  0.14309316     0.07260
O1008       O  0.50917421  0.68525203  0.13244730    -0.56650
C1009       C  0.59592825  0.74195988  0.10462516     0.75980
O1010       O  0.94548790  0.70131598  0.05236389    -0.57810
C1011       C  0.96577784  0.68410254  0.14659797     0.75950
C1012       C  0.89753568  0.74201295  0.10231898     0.78340
Cd1013     Cd  0.49037956  0.71652767  0.10316977     1.37460
O1014       O  0.57374697  0.73592731  0.13250884    -0.56650
O1015       O  0.92180747  0.73665661  0.13044247    -0.55460
C1016       C  0.47122919  0.68502339  0.05495001     0.78300
O1017       O  0.91792791  0.73603974  0.07425109    -0.57830
O1018       O  0.57036797  0.73585690  0.07661199    -0.56280
O1019       O  0.93522592  0.69934264  0.14452616    -0.56270
O1020       O  0.51197628  0.68427233  0.07728516    -0.55440
O1021       O  0.92756093  0.26551412  0.12902145    -0.56650
C1022       C  0.54205779  0.31348753  0.14338183     0.75980
O1023       O  0.57439407  0.25803648  0.07244062    -0.57810
C1024       C  0.90007664  0.25959570  0.10148957     0.75950
C1025       C  0.03098913  0.31263208  0.05183588     0.78340
Cd1026     Cd  0.01038506  0.28161359  0.09944507     1.37470
O1027       O  0.99717017  0.31355914  0.12793139    -0.56650
O1028       O  0.99065396  0.31378232  0.07253062    -0.55460
C1029       C  0.59632851  0.25208056  0.10086697     0.78300
O1030       O  0.54689938  0.29395879  0.04858189    -0.57830
O1031       O  0.57349873  0.29862326  0.14008784    -0.56280
O1032       O  0.92246270  0.26443448  0.07310039    -0.56270
O1033       O  0.57555873  0.25853273  0.12851981    -0.55440
C1034       C  0.01623599  0.35887531  0.19683095     0.04290
C1035       C  0.01897680  0.34767283  0.02811339    -0.11860
C1036       C  0.04592344  0.32911605  0.02806831     0.01790
C1037       C  0.07394774  0.32310597  0.20232210    -0.10380
C1038       C  0.06019464  0.33020934  0.16990824     0.04280
C1039       C  0.03601525  0.34915496  0.16694214    -0.09800
H1040       H  0.99797966  0.35206697  0.05124150     0.09880
H1041       H  0.09633258  0.30917550  0.20421717     0.07410
H1042       H  0.02975417  0.35498412  0.14119175     0.07260
O1043       O  0.73072454  0.18485033  0.07525265    -0.56650
C1044       C  0.64565830  0.23920109  0.10175030     0.75980
O1045       O  0.79952729  0.20491337  0.15253023    -0.57810
C1046       C  0.77517644  0.18692788  0.05748573     0.75950
C1047       C  0.84646428  0.24678360  0.10235826     0.78340
Cd1048     Cd  0.75041655  0.21779306  0.10343273     1.37460
O1049       O  0.66769003  0.23327936  0.07422895    -0.56650
O1050       O  0.82038622  0.24032799  0.07462438    -0.55460
C1051       C  0.77474183  0.18719013  0.15041161     0.78300
O1052       O  0.82574932  0.24087269  0.13076320    -0.57830
O1053       O  0.66993514  0.23428848  0.13006423    -0.56280
O1054       O  0.80272042  0.20416015  0.05842524    -0.56270
O1055       O  0.73279317  0.18446178  0.12887085    -0.55440
C1056       C  0.75638351  0.13976000  0.00310591     0.04290
C1057       C  0.76534992  0.15113253  0.03448040    -0.11860
C1058       C  0.79053440  0.17105343  0.03364687     0.01790
C1059       C  0.81347093  0.17806607  0.00333319    -0.10380
C1060       C  0.79007219  0.17133171  0.17464574     0.04280
C1061       C  0.76567210  0.15126968  0.17191447    -0.09800
H1062       H  0.74980781  0.14561034  0.05884666     0.09880
H1063       H  0.83673904  0.19285328  0.00347104     0.07410
H1064       H  0.75130150  0.14564212  0.14655175     0.07260
C1065       C  0.49913161  0.37992561  0.19639838     0.04290
C1066       C  0.50037226  0.39061936  0.02812549    -0.11860
C1067       C  0.50253866  0.41201356  0.02990055     0.01790
C1068       C  0.50629791  0.42254917  0.19786779    -0.10380
C1069       C  0.50116698  0.41230202  0.16498402     0.04280
C1070       C  0.49455103  0.39092865  0.16546271    -0.09800
H1071       H  0.50075462  0.38216100  0.05165387     0.09880
H1072       H  0.51508830  0.43872534  0.19867086     0.07410
H1073       H  0.48586551  0.38260621  0.14160379     0.07260
C1074       C  0.01634732  0.54263618  0.09887926     0.04290
C1075       C  0.01681276  0.55336749  0.06761460    -0.11860
C1076       C  0.02801199  0.57455835  0.06698245     0.01790
C1077       C  0.03657562  0.58491120  0.09979850    -0.10380
C1078       C  0.03171735  0.57453896  0.13225774     0.04280
C1079       C  0.02341062  0.55321693  0.13066510    -0.09800
H1080       H  0.00746891  0.54490595  0.04371901     0.09880
H1081       H  0.04744132  0.60106719  0.09996155     0.07410
H1082       H  0.02045662  0.54449831  0.15414839     0.07260
C1083       C  0.49235641  0.45484387  0.09743317     0.04290
C1084       C  0.49064952  0.44391321  0.06610679    -0.11860
C1085       C  0.50068275  0.42310205  0.06500913     0.01790
C1086       C  0.50770152  0.41328285  0.09775284    -0.10380
C1087       C  0.50142894  0.42347891  0.13023216     0.04220
C1088       C  0.49554603  0.44459364  0.12901265    -0.09800
H1089       H  0.48321706  0.45231209  0.04268361     0.09880
H1090       H  0.51973496  0.39784623  0.09819589     0.07410
H1091       H  0.49398550  0.45357113  0.15237708     0.07260
C1092       C  0.00753145  0.61661725  0.19958179     0.04290
C1093       C  0.01022744  0.60582177  0.03104800    -0.11860
C1094       C  0.02653120  0.58564210  0.03222715     0.01790
C1095       C  0.03900468  0.57597092  0.20007467    -0.10380
C1096       C  0.03036754  0.58568126  0.16738187     0.04280
C1097       C  0.01472753  0.60595577  0.16826242    -0.09800
H1098       H  0.99847119  0.61278589  0.05486230     0.09880
H1099       H  0.05379616  0.56079008  0.20057549     0.07410
H1100       H  0.00498373  0.61303112  0.14404493     0.07260
C1101       C  0.50683991  0.52061929  0.09788524    -0.04180
C1102       C  0.54742183  0.50937833  0.08087351    -0.01290
C1103       C  0.54205777  0.48798803  0.08045384     0.03700
C1104       C  0.49589734  0.47751737  0.09695688    -0.04170
C1105       C  0.95420616  0.48870263  0.11583632    -0.01280
C1106       C  0.96160481  0.51012381  0.11587364     0.03690
C1107       C  0.59593813  0.51977820  0.06450146     0.38340
C1108       C  0.90623553  0.47894855  0.13360722     0.38330
C1109       C  0.92068935  0.52202110  0.13328843     0.36760
C1110       C  0.58546834  0.47678257  0.06387482     0.36760
N1111       N  0.88820129  0.53147026  0.14735638    -0.38060
N1112       N  0.61988266  0.46786656  0.05049601    -0.38060
N1113       N  0.86828071  0.47115912  0.14800801    -0.37510
N1114       N  0.63439218  0.52804625  0.05124505    -0.37510
C1115       C  0.73449182  0.97678649  0.09964374    -0.04180
C1116       C  0.77579576  0.98865764  0.12013374    -0.01290
C1117       C  0.77531935  0.01008142  0.12041739     0.03700
C1118       C  0.73337814  0.01985165  0.10031319    -0.04170
C1119       C  0.69238440  0.00794213  0.07963919    -0.01280
C1120       C  0.69304600  0.98659461  0.07923169     0.03690
C1121       C  0.81953997  0.97888529  0.14054290     0.38340
C1122       C  0.64806255  0.01756490  0.05939182     0.38330
C1123       C  0.64969501  0.97473316  0.05835621     0.36760
C1124       C  0.81876392  0.02203130  0.14100268     0.36760
N1125       N  0.61542420  0.96531888  0.04148048    -0.38060
N1126       N  0.85321392  0.03152233  0.15762760    -0.38060
N1127       N  0.61301736  0.02523453  0.04305708    -0.37510
N1128       N  0.85415796  0.97108412  0.15701690    -0.37510
C1129       C  0.74059421  0.11727613  0.20204115     0.04290
C1130       C  0.73917236  0.10634212  0.23335888    -0.11860
C1131       C  0.72546812  0.08530422  0.23424264     0.01790
C1132       C  0.71568615  0.07477243  0.40138984    -0.10380
C1133       C  0.72461477  0.08502066  0.36929340     0.04280
C1134       C  0.73771000  0.10616912  0.37113053    -0.09800
H1135       H  0.75195716  0.11401770  0.25740723     0.09880
H1136       H  0.70297042  0.05875900  0.40095414     0.07410
H1137       H  0.74901363  0.11395218  0.34773209     0.07260
C1138       C  0.74256403  0.95428970  0.29975487     0.04290
C1139       C  0.74292254  0.94341293  0.26834733    -0.11860
C1140       C  0.73107882  0.92228424  0.26674242     0.01790
C1141       C  0.72255916  0.91201376  0.29887411    -0.10380
C1142       C  0.72804805  0.92239872  0.33184632     0.04280
C1143       C  0.73658082  0.94377829  0.33110373    -0.09800
H1144       H  0.75150896  0.95181830  0.24495803     0.09880
H1145       H  0.71074722  0.89593701  0.29788908     0.07410
H1146       H  0.73901596  0.95262567  0.35483056     0.07260
C1147       C  0.74076723  0.04283243  0.30101087     0.04290
C1148       C  0.74016703  0.05374345  0.26992968    -0.11860
C1149       C  0.72740705  0.07427415  0.26901739     0.01790
C1150       C  0.71910864  0.08409860  0.30158001    -0.10380
C1151       C  0.72524026  0.07391074  0.33412508     0.04280
C1152       C  0.73463861  0.05299957  0.33270651    -0.09800
H1153       H  0.74879190  0.04577878  0.24624594     0.09880
H1154       H  0.70701282  0.09963740  0.30148573     0.07410
H1155       H  0.73762839  0.04429657  0.35619269     0.07260
C1156       C  0.74789890  0.87991488  0.39908234     0.04290
C1157       C  0.74582810  0.89095340  0.23033775    -0.11860
C1158       C  0.73023703  0.91117755  0.23170856     0.01790
C1159       C  0.72154411  0.92108010  0.39934384    -0.10380
C1160       C  0.72840116  0.91119268  0.36672066     0.04280
C1161       C  0.74032210  0.89050543  0.36770170    -0.09800
H1162       H  0.75946487  0.88397844  0.25415874     0.09880
H1163       H  0.70838842  0.93646604  0.39966165     0.07410
H1164       H  0.74576394  0.88284973  0.34363145     0.07260
C1165       C  0.76412848  0.85807414  0.39944083     0.04290
C1166       C  0.76567962  0.84670632  0.22925109    -0.11860
C1167       C  0.79250912  0.82816157  0.22980317     0.01790
C1168       C  0.81905388  0.82178959  0.40441342    -0.10380
C1169       C  0.80519142  0.82901928  0.37216374     0.04280
C1170       C  0.78185252  0.84805619  0.36933158    -0.09800
H1171       H  0.74222763  0.85108106  0.25149941     0.09880
H1172       H  0.84128631  0.80782173  0.40612393     0.07410
H1173       H  0.77529691  0.85385233  0.34358809     0.07260
O1174       O  0.74340662  0.81255428  0.32936877    -0.56650
C1175       C  0.65334642  0.75579840  0.30166137     0.75980
O1176       O  0.80002080  0.79482058  0.25138840    -0.57810
C1177       C  0.79048888  0.81295051  0.34678038     0.75950
C1178       C  0.85191019  0.75493244  0.30134291     0.78340
Cd1179     Cd  0.75916250  0.78083984  0.30087140     1.37470
O1180       O  0.67894026  0.76213344  0.32956710    -0.56650
O1181       O  0.83072762  0.76064556  0.32933040    -0.55460
C1182       C  0.77673972  0.81169190  0.25330385     0.78300
O1183       O  0.82886236  0.76068673  0.27312852    -0.57830
O1184       O  0.67564386  0.76145139  0.27367832    -0.56280
O1185       O  0.82003620  0.79748633  0.34493360    -0.56270
O1186       O  0.73766855  0.81313942  0.27482123    -0.55440
C1187       C  0.49123605  0.63945321  0.40022916     0.04290
C1188       C  0.48184220  0.65013531  0.23006257    -0.11860
C1189       C  0.45407650  0.66848716  0.22956056     0.01790
C1190       C  0.43342859  0.67516471  0.40006432    -0.10380
C1191       C  0.45784474  0.66915730  0.37004280     0.04280
C1192       C  0.48387979  0.65051019  0.36916132    -0.09800
H1193       H  0.50444175  0.64594419  0.25361991     0.09880
H1194       H  0.40989669  0.68886123  0.39990029     0.07410
H1195       H  0.50105446  0.64576218  0.34502483     0.07260
O1196       O  0.51645629  0.68554951  0.32834561    -0.56650
C1197       C  0.60043404  0.74250284  0.30153481     0.75980
O1198       O  0.94769730  0.70121186  0.25221222    -0.57810
C1199       C  0.96630666  0.68443958  0.34664661     0.75950
C1200       C  0.90099679  0.74222470  0.30158462     0.78340
Cd1201     Cd  0.49514360  0.71715647  0.30043349     1.37460
O1202       O  0.57789057  0.73660652  0.32934463    -0.56650
O1203       O  0.92507370  0.73692760  0.32980154    -0.55460
C1204       C  0.47085039  0.68533301  0.25332301     0.78300
O1205       O  0.92113267  0.73605259  0.27357228    -0.57830
O1206       O  0.57520183  0.73634632  0.27344012    -0.56280
O1207       O  0.93597354  0.69970810  0.34403789    -0.56270
O1208       O  0.51403651  0.68482125  0.27396146    -0.55440
O1209       O  0.91326866  0.26478443  0.32796142    -0.56650
C1210       C  0.53533413  0.31274360  0.34147842     0.75980
O1211       O  0.56031157  0.25754075  0.27138442    -0.57810
C1212       C  0.88537821  0.25904971  0.30047698     0.75950
C1213       C  0.01878185  0.31145817  0.25086531     0.78340
Cd1214     Cd  0.99553699  0.28066336  0.29817074     1.37470
O1215       O  0.98238159  0.31252190  0.32693729    -0.56650
O1216       O  0.97855406  0.31319933  0.27145233    -0.55460
C1217       C  0.58189314  0.25143651  0.29979477     0.78300
O1218       O  0.52998053  0.29263593  0.24661318    -0.57830
O1219       O  0.56555342  0.29776322  0.33629047    -0.56280
O1220       O  0.90752320  0.26384704  0.27199615    -0.56270
O1221       O  0.56091971  0.25772678  0.32748975    -0.55440
C1222       C  0.01450606  0.35884553  0.39727941     0.04290
C1223       C  0.01157262  0.34671855  0.22687260    -0.11860
C1224       C  0.03767685  0.32801952  0.22821869     0.01790
C1225       C  0.07306891  0.32313286  0.39812583    -0.10380
C1226       C  0.04834574  0.32926920  0.36735612     0.04280
C1227       C  0.02227249  0.34791272  0.36616698    -0.09800
H1228       H  0.98544652  0.35098366  0.24801374     0.09880
H1229       H  0.09572792  0.30923582  0.39831417     0.07410
H1230       H  0.00407715  0.35251869  0.34157750     0.07260
O1231       O  0.71799836  0.18479272  0.27345778    -0.56650
C1232       C  0.63117007  0.23862242  0.30067758     0.75980
O1233       O  0.78182676  0.20543832  0.35256952    -0.57810
C1234       C  0.76436455  0.18705414  0.25747942     0.75950
C1235       C  0.83154689  0.24645187  0.30149655     0.78340
Cd1236     Cd  0.73563549  0.21753555  0.30268902     1.37460
O1237       O  0.65337297  0.23278002  0.27315479    -0.56650
O1238       O  0.80488707  0.24023251  0.27381493    -0.55460
C1239       C  0.75999456  0.18731069  0.34976033     0.78300
O1240       O  0.81122519  0.24046352  0.32995723    -0.57830
O1241       O  0.65526728  0.23374104  0.32905203    -0.56280
O1242       O  0.79162738  0.20430455  0.25958124    -0.56270
O1243       O  0.71914611  0.18389983  0.32765822    -0.55440
C1244       C  0.75616344  0.13988976  0.20252872     0.04290
C1245       C  0.75775663  0.15140363  0.23379098    -0.11860
C1246       C  0.78309438  0.17131657  0.23454709     0.01790
C1247       C  0.81261429  0.17832818  0.20630472    -0.10380
C1248       C  0.77892880  0.17157242  0.37319005     0.04280
C1249       C  0.75431456  0.15150619  0.37253245    -0.09800
H1250       H  0.73647988  0.14577729  0.25651830     0.09880
H1251       H  0.83532068  0.19321279  0.20782708     0.07410
H1252       H  0.73175013  0.14578497  0.34914181     0.07260
C1253       C  0.50338245  0.37988952  0.39626309     0.04290
C1254       C  0.49973029  0.39060711  0.22821296    -0.11860
C1255       C  0.50174455  0.41199770  0.22996056     0.01790
C1256       C  0.50770186  0.42256369  0.39773802    -0.10380
C1257       C  0.50215911  0.41231098  0.36492364     0.04280
C1258       C  0.49685317  0.39092442  0.36542024    -0.09800
H1259       H  0.49993593  0.38206271  0.25173539     0.09880
H1260       H  0.51558001  0.43876531  0.39823702     0.07410
H1261       H  0.48760191  0.38273898  0.34153389     0.07260
C1262       C  0.01606247  0.54273589  0.29905758     0.04290
C1263       C  0.01779555  0.55340940  0.26775070    -0.11860
C1264       C  0.02884678  0.57461033  0.26712104     0.01790
C1265       C  0.03642776  0.58500752  0.29997013    -0.10380
C1266       C  0.03037444  0.57471124  0.33244314     0.04280
C1267       C  0.02171822  0.55337646  0.33083537    -0.09800
H1268       H  0.00954511  0.54488738  0.24381986     0.09880
H1269       H  0.04758616  0.60113506  0.30009725     0.07410
H1270       H  0.01766268  0.54466098  0.35425526     0.07260
C1271       C  0.48816468  0.45470472  0.29732536     0.04290
C1272       C  0.48718325  0.44373235  0.26602578    -0.11860
C1273       C  0.49920081  0.42308739  0.26498877     0.01790
C1274       C  0.50760015  0.41340018  0.29769541    -0.10380
C1275       C  0.50064210  0.42349696  0.33017412     0.04220
C1276       C  0.49248622  0.44449598  0.32894296    -0.09800
H1277       H  0.47887723  0.45197264  0.24252322     0.09880
H1278       H  0.52127576  0.39814910  0.29804836     0.07410
H1279       H  0.49016762  0.45340898  0.35233057     0.07260
C1280       C  0.00701755  0.61709208  0.39972789     0.04290
C1281       C  0.01213916  0.60587294  0.23099062    -0.11860
C1282       C  0.02824392  0.58568276  0.23230725     0.01790
C1283       C  0.03509275  0.57606697  0.40028728    -0.10380
C1284       C  0.02854330  0.58591595  0.36756623     0.04280
C1285       C  0.01500578  0.60644604  0.36842904    -0.09800
H1286       H  0.99983415  0.61281804  0.25469055     0.09880
H1287       H  0.04871969  0.56073485  0.40097007     0.07410
H1288       H  0.00804039  0.61380744  0.34418054     0.07260
C1289       C  0.49961847  0.52060655  0.29749854    -0.04180
C1290       C  0.54050250  0.50954043  0.28039177    -0.01290
C1291       C  0.53605286  0.48813492  0.28006196     0.03700
C1292       C  0.49047771  0.47741480  0.29672026    -0.04170
C1293       C  0.95361833  0.48866676  0.31483416    -0.01280
C1294       C  0.96069461  0.51010582  0.31495665     0.03690
C1295       C  0.58848677  0.52014473  0.26382378     0.38340
C1296       C  0.90453735  0.47879622  0.33138149     0.38330
C1297       C  0.91847633  0.52192545  0.33131896     0.36760
C1298       C  0.57991428  0.47717677  0.26343195     0.36760
N1299       N  0.88492805  0.53131759  0.34454060    -0.38060
N1300       N  0.61469162  0.46845766  0.25001463    -0.38060
N1301       N  0.86565124  0.47091010  0.34478486    -0.37510
N1302       N  0.62648361  0.52858480  0.25039702    -0.37510
C1303       C  0.74448450  0.97703810  0.29931162    -0.04180
C1304       C  0.78720278  0.98894634  0.31871036    -0.01290
C1305       C  0.78681727  0.01041964  0.31897989     0.03700
C1306       C  0.74365631  0.02020105  0.29988781    -0.04170
C1307       C  0.70159365  0.00824961  0.28006327    -0.01280
C1308       C  0.70205639  0.98688900  0.27973693     0.03690
C1309       C  0.83231014  0.97915711  0.33788900     0.38340
C1310       C  0.65628960  0.01784855  0.26063895     0.38330
C1311       C  0.65738514  0.97505409  0.25984073     0.36760
C1312       C  0.83157699  0.02242367  0.33841751     0.36760
N1313       N  0.62207013  0.96564873  0.24373808    -0.38060
N1314       N  0.86719874  0.03196600  0.35405088    -0.38060
N1315       N  0.62046323  0.02550175  0.24494521    -0.37510
N1316       N  0.86818031  0.97135778  0.35330346    -0.37510
C1317       C  0.74059053  0.11720486  0.40278110     0.04290
C1318       C  0.73524580  0.10621357  0.43385142    -0.11860
C1319       C  0.72319943  0.08506690  0.43421214     0.01790
C1320       C  0.71110443  0.07472567  0.60139044    -0.10380
C1321       C  0.71924690  0.08482316  0.56908717     0.04280
C1322       C  0.73321314  0.10591288  0.57055485    -0.09800
H1323       H  0.74320422  0.11389263  0.45829355     0.09880
H1324       H  0.69728249  0.05880494  0.60121764     0.07410
H1325       H  0.74295184  0.11350196  0.54682493     0.07260
C1326       C  0.73956956  0.95423205  0.49990418     0.04290
C1327       C  0.74172540  0.94342032  0.46856129    -0.11860
C1328       C  0.73073783  0.92225586  0.46678458     0.01790
C1329       C  0.72155062  0.91193963  0.49882069    -0.10380
C1330       C  0.72576107  0.92233194  0.53178640     0.04280
C1331       C  0.73295630  0.94370459  0.53113876    -0.09800
H1332       H  0.75101658  0.95192870  0.44539036     0.09880
H1333       H  0.71029180  0.89582529  0.49787954     0.07410
H1334       H  0.73411815  0.95252080  0.55488030     0.07260
C1335       C  0.73502076  0.04253400  0.50118164     0.04290
C1336       C  0.73566155  0.05342918  0.47010557    -0.11860
C1337       C  0.72288763  0.07394507  0.46895273     0.01790
C1338       C  0.71320100  0.08371101  0.50139476    -0.10380
C1339       C  0.71889329  0.07358755  0.53401465     0.04280
C1340       C  0.72795635  0.05267875  0.53275371    -0.09800
H1341       H  0.74543809  0.04545355  0.44665905     0.09880
H1342       H  0.70051526  0.09916383  0.50124779     0.07410
H1343       H  0.73026614  0.04398422  0.55627590     0.07260
C1344       C  0.75044369  0.88033971  0.59884932     0.04290
C1345       C  0.74534980  0.89079225  0.43056466    -0.11860
C1346       C  0.73127390  0.91120749  0.43173686     0.01790
C1347       C  0.71844894  0.92086264  0.59919691    -0.10380
C1348       C  0.72682108  0.91116032  0.56659691     0.04280
C1349       C  0.74163123  0.89079723  0.56752644    -0.09800
H1350       H  0.75729337  0.88357774  0.45448955     0.09880
H1351       H  0.70334826  0.93599180  0.59948450     0.07410
H1352       H  0.74853039  0.88335154  0.54345261     0.07260
C1353       C  0.76931153  0.85885126  0.59908855     0.04290
C1354       C  0.75940296  0.84601970  0.42969634    -0.11860
C1355       C  0.78437344  0.82709529  0.43087412     0.01790
C1356       C  0.82751645  0.82329685  0.60409453    -0.10380
C1357       C  0.81214376  0.83014652  0.57177920     0.04280
C1358       C  0.78780336  0.84903391  0.56895642    -0.09800
H1359       H  0.73492063  0.85069464  0.45131831     0.09880
H1360       H  0.85027494  0.80943581  0.60576340     0.07410
H1361       H  0.78018356  0.85465995  0.54319443     0.07260
O1362       O  0.74365302  0.81233522  0.53422966    -0.56650
C1363       C  0.65061338  0.75550667  0.50730801     0.75980
O1364       O  0.78835344  0.79351951  0.45206693    -0.57810
C1365       C  0.79398352  0.81358931  0.54789205     0.75950
C1366       C  0.85024067  0.75484689  0.50460361     0.78340
Cd1367     Cd  0.75652000  0.78070951  0.50451918     1.37470
O1368       O  0.67678584  0.76207499  0.53492547    -0.56650
O1369       O  0.82860576  0.76027444  0.53263050    -0.55460
C1370       C  0.76848404  0.81094801  0.45510381     0.78300
O1371       O  0.82710971  0.76075384  0.47651419    -0.57830
O1372       O  0.67232851  0.76101034  0.47908740    -0.56280
O1373       O  0.82446100  0.79852655  0.54405748    -0.56270
O1374       O  0.73382283  0.81335790  0.47892730    -0.55440
C1375       C  0.48482821  0.63841396  0.59951558     0.04290
C1376       C  0.48633468  0.65070389  0.43145405    -0.11860
C1377       C  0.46033063  0.66940313  0.43045957     0.01790
C1378       C  0.42188069  0.67289337  0.60050378    -0.10380
C1379       C  0.44491173  0.66718261  0.56988196     0.04280
C1380       C  0.47247527  0.64887327  0.56842928    -0.09800
H1381       H  0.50511012  0.64598208  0.45581737     0.09880
H1382       H  0.39719115  0.68632236  0.60069784     0.07410
H1383       H  0.48783261  0.64428406  0.54373383     0.07260
O1384       O  0.51055974  0.68551199  0.53452930    -0.56650
C1385       C  0.59766492  0.74213185  0.50743950     0.75980
O1386       O  0.95326940  0.70241888  0.45325126    -0.57810
C1387       C  0.96611422  0.68419443  0.54752007     0.75950
C1388       C  0.90001413  0.74235207  0.50466578     0.78340
Cd1389     Cd  0.49192022  0.71671383  0.50521917     1.37460
O1390       O  0.57519010  0.73602842  0.53520101    -0.56650
O1391       O  0.92440585  0.73701934  0.53276797    -0.55460
C1392       C  0.47385853  0.68566311  0.45593446     0.78300
O1393       O  0.92059035  0.73645021  0.47660532    -0.57830
O1394       O  0.57229676  0.73611497  0.47931877    -0.56280
O1395       O  0.93467904  0.69911718  0.54408672    -0.56270
O1396       O  0.51350125  0.68450114  0.47887119    -0.55440
O1397       O  0.92792493  0.26547028  0.52920487    -0.56650
C1398       C  0.53854235  0.31312643  0.54252200     0.75980
O1399       O  0.57389345  0.25742819  0.47147906    -0.57810
C1400       C  0.90034566  0.25961075  0.50166866     0.75950
C1401       C  0.03191479  0.31250499  0.45174595     0.78340
Cd1402     Cd  0.01071392  0.28161802  0.49955517     1.37470
O1403       O  0.99729883  0.31359952  0.52786843    -0.56650
O1404       O  0.99150975  0.31370867  0.47238077    -0.55460
C1405       C  0.59644849  0.25187952  0.50000473     0.78300
O1406       O  0.55052328  0.29379890  0.44829817    -0.57830
O1407       O  0.56907660  0.29790144  0.54080340    -0.56280
O1408       O  0.92260854  0.26453862  0.47328218    -0.56270
O1409       O  0.57609819  0.25866015  0.52754497    -0.55440
C1410       C  0.01695346  0.35904961  0.59661756     0.04290
C1411       C  0.02052585  0.34760683  0.42832264    -0.11860
C1412       C  0.04642704  0.32885961  0.42765849     0.01790
C1413       C  0.07630622  0.32362874  0.60165204    -0.10380
C1414       C  0.06084924  0.33049386  0.56934118     0.04280
C1415       C  0.03587859  0.34930538  0.56652260    -0.09800
H1416       H  0.00207820  0.35222792  0.45214470     0.09880
H1417       H  0.09937901  0.30984277  0.60337068     0.07410
H1418       H  0.02823661  0.35497258  0.54078667     0.07260
O1419       O  0.73171641  0.18493461  0.47460244    -0.56650
C1420       C  0.64594639  0.23907220  0.50111082     0.75980
O1421       O  0.79798173  0.20463503  0.55272467    -0.57810
C1422       C  0.77681345  0.18689556  0.45739057     0.75950
C1423       C  0.84678056  0.24675667  0.50249192     0.78340
Cd1424     Cd  0.75079661  0.21769569  0.50326560     1.37460
O1425       O  0.66797816  0.23297585  0.47370069    -0.56650
O1426       O  0.82063416  0.24039911  0.47471913    -0.55460
C1427       C  0.77323550  0.18691330  0.55019517     0.78300
O1428       O  0.82619430  0.24070253  0.53085464    -0.57830
O1429       O  0.67033246  0.23438410  0.52951915    -0.56280
O1430       O  0.80503689  0.20399236  0.45891830    -0.56270
O1431       O  0.73182457  0.18427378  0.52826693    -0.55440
C1432       C  0.75551425  0.13986411  0.40330695     0.04290
C1433       C  0.76748004  0.15112413  0.43457316    -0.11860
C1434       C  0.79167094  0.17115191  0.43319032     0.01790
C1435       C  0.81102361  0.17842721  0.40217691    -0.10380
C1436       C  0.78838390  0.17091475  0.57421346     0.04280
C1437       C  0.76275697  0.15100133  0.57188904    -0.09800
H1438       H  0.75522706  0.14545049  0.45951255     0.09880
H1439       H  0.83361424  0.19332623  0.40181525     0.07410
H1440       H  0.74586812  0.14549708  0.54691492     0.07260
C1441       C  0.49664371  0.37985204  0.59631645     0.04290
C1442       C  0.50461214  0.39062263  0.42810057    -0.11860
C1443       C  0.50479481  0.41200251  0.42991465     0.01790
C1444       C  0.50678814  0.42249318  0.59784488    -0.10380
C1445       C  0.50081158  0.41227061  0.56497717     0.04280
C1446       C  0.49270951  0.39093312  0.56540648    -0.09800
H1447       H  0.50671488  0.38216584  0.45158346     0.09880
H1448       H  0.51684407  0.43861408  0.59860600     0.07410
H1449       H  0.48344033  0.38275509  0.54147435     0.07260
C1450       C  0.00858476  0.54270481  0.49858950     0.04290
C1451       C  0.01034706  0.55354958  0.46743461    -0.11860
C1452       C  0.02317729  0.57467528  0.46705266     0.01790
C1453       C  0.03166661  0.58489008  0.49997764    -0.10380
C1454       C  0.02583462  0.57441876  0.53222787     0.04280
C1455       C  0.01580305  0.55315798  0.53049021    -0.09800
H1456       H  0.00112164  0.54521244  0.44340226     0.09880
H1457       H  0.04328137  0.60101207  0.50051999     0.07410
H1458       H  0.01198085  0.54445240  0.55397387     0.07260
C1459       C  0.49301186  0.45481793  0.49746169     0.04290
C1460       C  0.49205226  0.44389573  0.46613562    -0.11860
C1461       C  0.50223340  0.42307833  0.46505182     0.01790
C1462       C  0.50854100  0.41324838  0.49784995    -0.10380
C1463       C  0.50174110  0.42345071  0.53026113     0.04220
C1464       C  0.49574171  0.44455226  0.52903791    -0.09800
H1465       H  0.48493722  0.45233466  0.44273933     0.09880
H1466       H  0.52023117  0.39777749  0.49848365     0.07410
H1467       H  0.49353350  0.45347356  0.55242794     0.07260
C1468       C  0.00319284  0.61623379  0.60009729     0.04290
C1469       C  0.00957639  0.60622060  0.43106881    -0.11860
C1470       C  0.02405539  0.58584594  0.43239424     0.01790
C1471       C  0.03701091  0.57585093  0.59976052    -0.10380
C1472       C  0.02565257  0.58548431  0.56735180     0.04280
C1473       C  0.00846814  0.60554904  0.56857825    -0.09800
H1474       H  0.99707631  0.61329766  0.45464926     0.09880
H1475       H  0.05247319  0.56075478  0.59969405     0.07410
H1476       H  0.99575453  0.61239841  0.54454577     0.07260
C1477       C  0.50576025  0.52063115  0.49780547    -0.04180
C1478       C  0.54672251  0.50952320  0.48088527    -0.01290
C1479       C  0.54202814  0.48812512  0.48058952     0.03700
C1480       C  0.49600554  0.47750509  0.49699449    -0.04170
C1481       C  0.94652678  0.48861862  0.51481830    -0.01280
C1482       C  0.95343359  0.51006804  0.51483913     0.03690
C1483       C  0.59494792  0.52008276  0.46448133     0.38340
C1484       C  0.89826082  0.47870362  0.53208738     0.38330
C1485       C  0.91175839  0.52186978  0.53175147     0.36760
C1486       C  0.58600363  0.47707496  0.46425662     0.36760
N1487       N  0.87858696  0.53123535  0.54538120    -0.38060
N1488       N  0.62088653  0.46828356  0.45108334    -0.38060
N1489       N  0.86001684  0.47078221  0.54604883    -0.37510
N1490       N  0.63316212  0.52848525  0.45120224    -0.37510
C1491       C  0.74067207  0.97692123  0.49952066    -0.04180
C1492       C  0.78220505  0.98893080  0.51961940    -0.01290
C1493       C  0.78112036  0.01035755  0.51992564     0.03700
C1494       C  0.73842095  0.01996901  0.50017863    -0.04170
C1495       C  0.69742886  0.00792121  0.47974707    -0.01280
C1496       C  0.69861022  0.98659572  0.47937117     0.03690
C1497       C  0.82677759  0.97929869  0.53954508     0.38340
C1498       C  0.65251158  0.01737620  0.45973583     0.38330
C1499       C  0.65507485  0.97461342  0.45882420     0.36760
C1500       C  0.82465777  0.02248519  0.54013489     0.36760
N1501       N  0.62067482  0.96509589  0.44220744    -0.38060
N1502       N  0.85923750  0.03212665  0.55641853    -0.38060
N1503       N  0.61699929  0.02491250  0.44358117    -0.37510
N1504       N  0.86215995  0.97162066  0.55558606    -0.37510
C1505       C  0.73887592  0.11699768  0.60210549     0.04290
C1506       C  0.73532034  0.10606008  0.63336828    -0.11860
C1507       C  0.72110644  0.08503363  0.63405936     0.01790
C1508       C  0.71445639  0.07481428  0.80175238    -0.10380
C1509       C  0.72056271  0.08496996  0.76928944     0.04280
C1510       C  0.73329551  0.10614275  0.77072217    -0.09800
H1511       H  0.74690973  0.11368624  0.65758084     0.09880
H1512       H  0.70175124  0.05881208  0.80194554     0.07410
H1513       H  0.74184554  0.11384891  0.74695455     0.07260
C1514       C  0.73421443  0.95407168  0.69977208     0.04290
C1515       C  0.73668530  0.94334972  0.66839459    -0.11860
C1516       C  0.72758268  0.92212554  0.66665465     0.01790
C1517       C  0.71940700  0.91170217  0.69871675    -0.10380
C1518       C  0.72275287  0.92206979  0.73178847     0.04280
C1519       C  0.72837352  0.94348726  0.73100035    -0.09800
H1520       H  0.74522291  0.95194216  0.64520547     0.09880
H1521       H  0.70956066  0.89552814  0.69747841     0.07410
H1522       H  0.72896670  0.95239490  0.75458271     0.07260
C1523       C  0.73166113  0.04244551  0.70100880     0.04290
C1524       C  0.73213317  0.05328680  0.66989007    -0.11860
C1525       C  0.72120384  0.07397603  0.66886543     0.01790
C1526       C  0.71340723  0.08392651  0.70141388    -0.10380
C1527       C  0.71897068  0.07375908  0.73406129     0.04280
C1528       C  0.72623720  0.05271692  0.73264335    -0.09800
H1529       H  0.74053777  0.04516653  0.64633547     0.09880
H1530       H  0.70219134  0.09954685  0.70117170     0.07410
H1531       H  0.72843596  0.04395539  0.75607044     0.07260
C1532       C  0.74532313  0.87977962  0.79906796     0.04290
C1533       C  0.74625495  0.89105644  0.63038579    -0.11860
C1534       C  0.72939619  0.91114781  0.63159486     0.01790
C1535       C  0.71980444  0.92098712  0.79962614    -0.10380
C1536       C  0.72431612  0.91094842  0.76681939     0.04280
C1537       C  0.73529739  0.89017700  0.76777582    -0.09800
H1538       H  0.75907939  0.88402914  0.65432585     0.09880
H1539       H  0.70722406  0.93642527  0.80038693     0.07410
H1540       H  0.73795646  0.88220207  0.74375272     0.07260
C1541       C  0.76207237  0.85802981  0.79915035     0.04290
C1542       C  0.76534313  0.84674048  0.62920444    -0.11860
C1543       C  0.79166055  0.82810193  0.63030908     0.01790
C1544       C  0.81854706  0.82205585  0.80337021    -0.10380
C1545       C  0.80268046  0.82908588  0.77129512     0.04280
C1546       C  0.77885537  0.84804799  0.76877181    -0.09800
H1547       H  0.73973504  0.85100689  0.65058956     0.09880
H1548       H  0.84121971  0.80817639  0.80477499     0.07410
H1549       H  0.77136178  0.85382653  0.74309475     0.07260
O1550       O  0.73973608  0.81264648  0.72897549    -0.56650
C1551       C  0.64843992  0.75585112  0.70211180     0.75980
O1552       O  0.79555051  0.79441139  0.65095137    -0.57810
C1553       C  0.78694722  0.81290624  0.74624622     0.75950
C1554       C  0.84665848  0.75460535  0.70073199     0.78340
Cd1555     Cd  0.75445533  0.78076019  0.70061945     1.37470
O1556       O  0.67449259  0.76218139  0.72987640    -0.56650
O1557       O  0.82595940  0.76038675  0.72882491    -0.55460
C1558       C  0.77363205  0.81152324  0.65309675     0.78300
O1559       O  0.82341006  0.76042088  0.67262261    -0.57830
O1560       O  0.67021810  0.76154123  0.67399187    -0.56280
O1561       O  0.81587802  0.79728259  0.74447978    -0.56270
O1562       O  0.73438365  0.81320647  0.67443318    -0.55440
C1563       C  0.48744716  0.63913029  0.79980361     0.04290
C1564       C  0.48175754  0.64991069  0.63058618    -0.11860
C1565       C  0.45328852  0.66812036  0.63000603     0.01790
C1566       C  0.42788762  0.67447873  0.80026210    -0.10380
C1567       C  0.45127070  0.66850913  0.76988905     0.04280
C1568       C  0.47778034  0.64995363  0.76870982    -0.09800
H1569       H  0.50427256  0.64580868  0.65422037     0.09880
H1570       H  0.40414149  0.68812813  0.80033823     0.07410
H1571       H  0.49382765  0.64523136  0.74425974     0.07260
O1572       O  0.51164304  0.68551276  0.72978302    -0.56650
C1573       C  0.59566230  0.74247810  0.70223974     0.75980
O1574       O  0.93556325  0.69992358  0.65264757    -0.57810
C1575       C  0.96501975  0.68394772  0.74618672     0.75950
C1576       C  0.89543700  0.74176001  0.70071230     0.78340
Cd1577     Cd  0.49069048  0.71688964  0.70118338     1.37460
O1578       O  0.57336619  0.73655683  0.73012687    -0.56650
O1579       O  0.91921979  0.73613330  0.72880620    -0.55460
C1580       C  0.46907708  0.68501650  0.65387137     0.78300
O1581       O  0.91559887  0.73580188  0.67256558    -0.57830
O1582       O  0.57036267  0.73624026  0.67422296    -0.56280
O1583       O  0.93596182  0.69960612  0.74545159    -0.56270
O1584       O  0.51135292  0.68455732  0.67520715    -0.55440
O1585       O  0.91907125  0.26476484  0.72777833    -0.56650
C1586       C  0.53925844  0.31320817  0.74277483     0.75980
O1587       O  0.56639249  0.25802119  0.67226735    -0.57810
C1588       C  0.89127350  0.25898448  0.70028890     0.75950
C1589       C  0.02308794  0.31178295  0.65082764     0.78340
Cd1590     Cd  0.00134644  0.28078030  0.69808472     1.37470
O1591       O  0.98783365  0.31256932  0.72693121    -0.56650
O1592       O  0.98299647  0.31327731  0.67158638    -0.55460
C1593       C  0.58794044  0.25177350  0.70058476     0.78300
O1594       O  0.53522251  0.29328470  0.64783326    -0.57830
O1595       O  0.57091882  0.29866733  0.73725533    -0.56280
O1596       O  0.91346469  0.26378587  0.67182674    -0.56270
O1597       O  0.56699105  0.25796987  0.72835885    -0.55440
C1598       C  0.01497644  0.35859797  0.79714493     0.04290
C1599       C  0.01380276  0.34696282  0.62682672    -0.11860
C1600       C  0.04075151  0.32841689  0.62798884     0.01790
C1601       C  0.07221879  0.32260735  0.79994156    -0.10380
C1602       C  0.05212066  0.32919764  0.76832196     0.04280
C1603       C  0.02700626  0.34800483  0.76633091    -0.09800
H1604       H  0.98819457  0.35113900  0.64826317     0.09880
H1605       H  0.09437078  0.30860408  0.80084823     0.07410
H1606       H  0.01298653  0.35294060  0.74103148     0.07260
O1607       O  0.72229854  0.18469309  0.67409115    -0.56650
C1608       C  0.63710566  0.23887688  0.70124610     0.75980
O1609       O  0.78970325  0.20514099  0.75203522    -0.57810
C1610       C  0.76784918  0.18679067  0.65730210     0.75950
C1611       C  0.83747755  0.24636035  0.70130732     0.78340
Cd1612     Cd  0.74144111  0.21754807  0.70268917     1.37460
O1613       O  0.65904337  0.23306945  0.67361520    -0.56650
O1614       O  0.81091312  0.24006258  0.67363560    -0.55460
C1615       C  0.76616360  0.18723464  0.74974383     0.78300
O1616       O  0.81706396  0.24045548  0.72979162    -0.57830
O1617       O  0.66134834  0.23386063  0.72950131    -0.56280
O1618       O  0.79527889  0.20403164  0.65868619    -0.56270
O1619       O  0.72453636  0.18416155  0.72806452    -0.55440
C1620       C  0.75510812  0.13957679  0.60263820     0.04290
C1621       C  0.75918907  0.15105948  0.63398853    -0.11860
C1622       C  0.78527198  0.17086462  0.63426481     0.01790
C1623       C  0.81342448  0.17767496  0.60541836    -0.10380
C1624       C  0.78312697  0.17146739  0.77368504     0.04280
C1625       C  0.75866131  0.15140102  0.77184641    -0.09800
H1626       H  0.73910177  0.14561017  0.65719481     0.09880
H1627       H  0.83710387  0.19238892  0.60658115     0.07410
H1628       H  0.74050453  0.14577478  0.74722763     0.07260
C1629       C  0.50119768  0.37985090  0.79632408     0.04290
C1630       C  0.49778400  0.39057092  0.62812997    -0.11860
C1631       C  0.50143572  0.41196833  0.62991216     0.01790
C1632       C  0.50634665  0.42248709  0.79778611    -0.10380
C1633       C  0.50132646  0.41224136  0.76492116     0.04280
C1634       C  0.49562721  0.39085387  0.76541561    -0.09800
H1635       H  0.49713452  0.38207360  0.65166847     0.09880
H1636       H  0.51450789  0.43868173  0.79847629     0.07410
H1637       H  0.48684032  0.38256081  0.74155678     0.07260
C1638       C  0.02101619  0.54256598  0.69915673     0.04290
C1639       C  0.02139854  0.55320207  0.66781426    -0.11860
C1640       C  0.03117277  0.57445076  0.66706905     0.01790
C1641       C  0.03941109  0.58488052  0.69985889    -0.10380
C1642       C  0.03461765  0.57459291  0.73240741     0.04280
C1643       C  0.02700646  0.55323480  0.73089365    -0.09800
H1644       H  0.01270734  0.54461390  0.64399311     0.09880
H1645       H  0.04997539  0.60103859  0.69989232     0.07410
H1646       H  0.02374208  0.54451155  0.75434718     0.07260
C1647       C  0.49064517  0.45478689  0.69736956     0.04290
C1648       C  0.48925420  0.44385572  0.66603356    -0.11860
C1649       C  0.49972058  0.42307985  0.66496676     0.01790
C1650       C  0.50724809  0.41328591  0.69766609    -0.10380
C1651       C  0.50082748  0.42343803  0.73016573     0.04220
C1652       C  0.49414801  0.44452477  0.72895234    -0.09800
H1653       H  0.48165567  0.45219264  0.64254542     0.09880
H1654       H  0.51983260  0.39790206  0.69797868     0.07410
H1655       H  0.49228557  0.45347858  0.75232198     0.07260
C1656       C  0.00985718  0.61687695  0.79955438     0.04290
C1657       C  0.01103906  0.60562082  0.63141639    -0.11860
C1658       C  0.02802521  0.58551721  0.63229492     0.01790
C1659       C  0.03957218  0.57603382  0.80025931    -0.10380
C1660       C  0.03260931  0.58581750  0.76749967     0.04280
C1661       C  0.01829309  0.60627055  0.76830181    -0.09800
H1662       H  0.00082259  0.61254297  0.65550312     0.09880
H1663       H  0.05374066  0.56077499  0.80101132     0.07410
H1664       H  0.01103141  0.61360653  0.74406481     0.07260
C1665       C  0.50374597  0.52062929  0.69785895    -0.04180
C1666       C  0.54466824  0.50948438  0.68095131    -0.01290
C1667       C  0.53973323  0.48808312  0.68051622     0.03700
C1668       C  0.49366953  0.47748106  0.69689977    -0.04170
C1669       C  0.95785738  0.48866285  0.71500008    -0.01280
C1670       C  0.96539167  0.51007927  0.71516474     0.03690
C1671       C  0.59310367  0.52000144  0.66468822     0.38340
C1672       C  0.90855618  0.47892021  0.73151131     0.38330
C1673       C  0.92342257  0.52201612  0.73151498     0.36760
C1674       C  0.58350147  0.47700073  0.66404516     0.36760
N1675       N  0.89008244  0.53151826  0.74469717    -0.38060
N1676       N  0.61821076  0.46818160  0.65075840    -0.38060
N1677       N  0.86948338  0.47113401  0.74487339    -0.37510
N1678       N  0.63148442  0.52837048  0.65151769    -0.37510
C1679       C  0.73530951  0.97676052  0.69956050    -0.04180
C1680       C  0.77748745  0.98867514  0.71932651    -0.01290
C1681       C  0.77700656  0.01010892  0.71953706     0.03700
C1682       C  0.73414976  0.01983810  0.70011671    -0.04170
C1683       C  0.69229707  0.00787987  0.68014933    -0.01280
C1684       C  0.69298765  0.98652867  0.67979051     0.03690
C1685       C  0.82211411  0.97892887  0.73902138     0.38340
C1686       C  0.64709071  0.01746227  0.66061070     0.38330
C1687       C  0.64879933  0.97461189  0.65964833     0.36760
C1688       C  0.82138417  0.02211926  0.73928830     0.36760
N1689       N  0.61384657  0.96514087  0.64337059    -0.38060
N1690       N  0.85663121  0.03166657  0.75521243    -0.38060
N1691       N  0.61131198  0.02510222  0.64485119    -0.37510
N1692       N  0.85749135  0.97114916  0.75489906    -0.37510
C1693       C  0.73922437  0.11723896  0.80228301     0.04290
C1694       C  0.73752428  0.10628076  0.83354993    -0.11860
C1695       C  0.72497586  0.08518278  0.83430990     0.01790
C1696       C  0.71445589  0.07476596  0.00133933    -0.10380
C1697       C  0.72367110  0.08494128  0.96922764     0.04280
C1698       C  0.73726855  0.10605623  0.97094453    -0.09800
H1699       H  0.74923274  0.11395101  0.85770809     0.09880
H1700       H  0.70112870  0.05879973  0.00087365     0.07410
H1701       H  0.74846218  0.11372086  0.94744038     0.07260
C1702       C  0.74446256  0.95431618  0.89991506     0.04290
C1703       C  0.74532611  0.94339137  0.86856827    -0.11860
C1704       C  0.73256218  0.92230809  0.86690840     0.01790
C1705       C  0.72326229  0.91209124  0.89899325    -0.10380
C1706       C  0.72868072  0.92248955  0.93191344     0.04280
C1707       C  0.73759407  0.94384247  0.93123299    -0.09800
H1708       H  0.75469352  0.95174834  0.84524054     0.09880
H1709       H  0.71091946  0.89604436  0.89811239     0.07410
H1710       H  0.73966219  0.95265472  0.95500768     0.07260
C1711       C  0.74138179  0.04281674  0.90114187     0.04290
C1712       C  0.74093428  0.05375713  0.87008022    -0.11860
C1713       C  0.72705500  0.07416527  0.86908323     0.01790
C1714       C  0.71794294  0.08391510  0.90159088    -0.10380
C1715       C  0.72433905  0.07377956  0.93414123     0.04280
C1716       C  0.73440099  0.05292640  0.93280181    -0.09800
H1717       H  0.75035837  0.04589036  0.84644415     0.09880
H1718       H  0.70508036  0.09936192  0.90150194     0.07410
H1719       H  0.73728894  0.04425610  0.95633500     0.07260
C1720       C  0.75027933  0.88023044  0.99903319     0.04290
C1721       C  0.74491030  0.89076722  0.83055606    -0.11860
C1722       C  0.73112180  0.91118733  0.83188069     0.01790
C1723       C  0.72019762  0.92100013  0.99919873    -0.10380
C1724       C  0.72881947  0.91127416  0.96668749     0.04280
C1725       C  0.74266758  0.89079822  0.96767173    -0.09800
H1726       H  0.75822836  0.88364561  0.85432291     0.09880
H1727       H  0.70577714  0.93622738  0.99930595     0.07410
H1728       H  0.74966142  0.88334619  0.94360551     0.07260
C1729       C  0.76824345  0.85860444  0.99938636     0.04290
C1730       C  0.75921477  0.84607367  0.82954201    -0.11860
C1731       C  0.78504445  0.82732065  0.83043033     0.01790
C1732       C  0.82506929  0.82274399  0.00467161    -0.10380
C1733       C  0.81129889  0.82986871  0.97231493     0.04280
C1734       C  0.78745456  0.84882977  0.96941578    -0.09800
H1735       H  0.73551617  0.85070168  0.85153969     0.09880
H1736       H  0.84753399  0.80882170  0.00643641     0.07410
H1737       H  0.78102819  0.85461225  0.94365321     0.07260
O1738       O  0.74413821  0.81226840  0.93377182    -0.56650
C1739       C  0.65208202  0.75571537  0.90560341     0.75980
O1740       O  0.79148648  0.79396082  0.85206124    -0.57810
C1741       C  0.79414117  0.81351357  0.94787149     0.75950
C1742       C  0.85095639  0.75484104  0.90397701     0.78340
Cd1743     Cd  0.75791906  0.78084233  0.90382737     1.37470
O1744       O  0.67790415  0.76212909  0.93342421    -0.56650
O1745       O  0.82928002  0.76026119  0.93199658    -0.55460
C1746       C  0.77022796  0.81116833  0.85478883     0.78300
O1747       O  0.82823380  0.76087871  0.87586154    -0.57830
O1748       O  0.67417929  0.76131914  0.87755006    -0.56280
O1749       O  0.82497901  0.79854933  0.94401414    -0.56270
O1750       O  0.73471396  0.81330350  0.87824083    -0.55440
C1751       C  0.48950165  0.63877909  0.00003149     0.04290
C1752       C  0.48362872  0.65050567  0.83097364    -0.11860
C1753       C  0.45682418  0.66905904  0.83022147     0.01790
C1754       C  0.42776594  0.67353946  0.00027436    -0.10380
C1755       C  0.45244382  0.66794156  0.97009163     0.04280
C1756       C  0.47997618  0.64960773  0.96896448    -0.09800
H1757       H  0.50418400  0.64602283  0.85498878     0.09880
H1758       H  0.40302897  0.68695397  0.00025063     0.07410
H1759       H  0.49715311  0.64512127  0.94468469     0.07260
O1760       O  0.51401372  0.68540022  0.93117036    -0.56650
C1761       C  0.59911502  0.74239279  0.90542880     0.75980
O1762       O  0.95328185  0.70185296  0.85279796    -0.57810
C1763       C  0.96376195  0.68389480  0.94715332     0.75950
C1764       C  0.90028985  0.74218272  0.90408087     0.78340
Cd1765     Cd  0.49360193  0.71699054  0.90334020     1.37460
O1766       O  0.57651790  0.73628053  0.93311642    -0.56650
O1767       O  0.92447731  0.73681914  0.93222495    -0.55460
C1768       C  0.47202016  0.68559514  0.85492453     0.78300
O1769       O  0.92061559  0.73614656  0.87602878    -0.57830
O1770       O  0.57387146  0.73642837  0.87723147    -0.56280
O1771       O  0.93194117  0.69866110  0.94308766    -0.56270
O1772       O  0.51375718  0.68479617  0.87655653    -0.55440
O1773       O  0.91858402  0.26512700  0.92882016    -0.56650
C1774       C  0.53526119  0.31286884  0.94183842     0.75980
O1775       O  0.56499124  0.25735710  0.87175688    -0.57810
C1776       C  0.89095525  0.25928956  0.90129785     0.75950
C1777       C  0.02479209  0.31175690  0.85162853     0.78340
Cd1778     Cd  0.00128288  0.28098591  0.89918738     1.37470
O1779       O  0.98767058  0.31290797  0.92743383    -0.56650
O1780       O  0.98404905  0.31327846  0.87192551    -0.55460
C1781       C  0.58703314  0.25160925  0.90028834     0.78300
O1782       O  0.53796235  0.29290055  0.84724283    -0.57830
O1783       O  0.56572168  0.29776571  0.93829293    -0.56280
O1784       O  0.91331652  0.26406421  0.87286563    -0.56270
O1785       O  0.56628582  0.25818249  0.92785437    -0.55440
C1786       C  0.01533487  0.35910267  0.99714127     0.04290
C1787       C  0.01628180  0.34698393  0.82796013    -0.11860
C1788       C  0.04173342  0.32814531  0.82813058     0.01790
C1789       C  0.07542458  0.32376820  0.99937165    -0.10380
C1790       C  0.05273123  0.32988166  0.96805618     0.04280
C1791       C  0.02637408  0.34845418  0.96623944    -0.09800
H1792       H  0.99457170  0.35150339  0.85075511     0.09880
H1793       H  0.09879207  0.31003013  0.00005284     0.07410
H1794       H  0.01046760  0.35311272  0.94115455     0.07260
O1795       O  0.72252345  0.18479949  0.87481812    -0.56650
C1796       C  0.63648321  0.23884529  0.90136489     0.75980
O1797       O  0.78937590  0.20510811  0.95243298    -0.57810
C1798       C  0.76745539  0.18709300  0.85751199     0.75950
C1799       C  0.83719140  0.24661136  0.90223054     0.78340
Cd1800     Cd  0.74113877  0.21768811  0.90332896     1.37460
O1801       O  0.65861992  0.23288517  0.87390681    -0.56650
O1802       O  0.81092411  0.24023554  0.87451536    -0.55460
C1803       C  0.76593548  0.18718989  0.95001873     0.78300
O1804       O  0.81653738  0.24071885  0.93066146    -0.57830
O1805       O  0.66075459  0.23409630  0.92977258    -0.56280
O1806       O  0.79455731  0.20439734  0.85881301    -0.56270
O1807       O  0.72402107  0.18418827  0.92852623    -0.55440
C1808       C  0.75384415  0.13991494  0.80270019     0.04290
C1809       C  0.75929162  0.15137979  0.83407422    -0.11860
C1810       C  0.78419411  0.17135000  0.83389245     0.01790
C1811       C  0.80969340  0.17844030  0.80435661    -0.10380
C1812       C  0.78377570  0.17129715  0.97347793     0.04280
C1813       C  0.75851403  0.15132012  0.97223908    -0.09800
H1814       H  0.74119119  0.14577128  0.85776442     0.09880
H1815       H  0.83244084  0.19332392  0.80504714     0.07410
H1816       H  0.73771598  0.14572207  0.94825336     0.07260
C1817       C  0.49930205  0.37987712  0.99632885     0.04290
C1818       C  0.50178560  0.39054141  0.82815095    -0.11860
C1819       C  0.50256097  0.41192549  0.82991848     0.01790
C1820       C  0.50670506  0.42255657  0.99776780    -0.10380
C1821       C  0.50083681  0.41231007  0.96494117     0.04280
C1822       C  0.49407460  0.39094328  0.96543749    -0.09800
H1823       H  0.50298309  0.38201969  0.85165078     0.09880
H1824       H  0.51576944  0.43871881  0.99837079     0.07410
H1825       H  0.48478057  0.38278351  0.94152390     0.07260
C1826       C  0.01271385  0.54270851  0.89861456     0.04290
C1827       C  0.01491653  0.55349884  0.86742874    -0.11860
C1828       C  0.02737510  0.57463500  0.86701925     0.01790
C1829       C  0.03530210  0.58490390  0.89993038    -0.10380
C1830       C  0.02887925  0.57449831  0.93223159     0.04280
C1831       C  0.01915225  0.55321649  0.93050091    -0.09800
H1832       H  0.00615042  0.54512033  0.84339314     0.09880
H1833       H  0.04691505  0.60101968  0.90033996     0.07410
H1834       H  0.01486428  0.54451310  0.95394669     0.07260
C1835       C  0.48973387  0.45474204  0.89725875     0.04290
C1836       C  0.48839796  0.44372856  0.86599319    -0.11860
C1837       C  0.49977204  0.42301667  0.86497977     0.01790
C1838       C  0.50730874  0.41329846  0.89775334    -0.10380
C1839       C  0.50049878  0.42347836  0.93017892     0.04220
C1840       C  0.49350661  0.44453970  0.92889723    -0.09800
H1841       H  0.48036065  0.45201445  0.84252119     0.09880
H1842       H  0.52012193  0.39794873  0.89827671     0.07410
H1843       H  0.49155019  0.45348537  0.95227760     0.07260
C1844       C  0.00480691  0.61652884  0.99964447     0.04290
C1845       C  0.01280904  0.60604784  0.83092532    -0.11860
C1846       C  0.02812546  0.58577470  0.83232999     0.01790
C1847       C  0.03677749  0.57592160  0.99993118    -0.10380
C1848       C  0.02762052  0.58562110  0.96732921     0.04280
C1849       C  0.01169824  0.60585568  0.96826569    -0.09800
H1850       H  0.99990633  0.61305318  0.85447416     0.09880
H1851       H  0.05161179  0.56073730  0.00026304     0.07410
H1852       H  0.00159463  0.61285280  0.94401520     0.07260
C1853       C  0.50312165  0.52063232  0.89747835    -0.04180
C1854       C  0.54319453  0.50942904  0.87993522    -0.01290
C1855       C  0.53814373  0.48802579  0.87958753     0.03700
C1856       C  0.49268505  0.47745696  0.89661161    -0.04170
C1857       C  0.94955092  0.48873790  0.91449488    -0.01280
C1858       C  0.95682527  0.51017637  0.91453804     0.03690
C1859       C  0.59096229  0.51988340  0.86292884     0.38340
C1860       C  0.90073888  0.47893259  0.93139795     0.38330
C1861       C  0.91494380  0.52207407  0.93105576     0.36760
C1862       C  0.58127074  0.47691938  0.86254081     0.36760
N1863       N  0.88162083  0.53152637  0.94436368    -0.38060
N1864       N  0.61544138  0.46808396  0.84877491    -0.38060
N1865       N  0.86205693  0.47110399  0.94507949    -0.37510
N1866       N  0.62878997  0.52819466  0.84914826    -0.37510
C1867       C  0.74634093  0.97706071  0.89936922    -0.04180
C1868       C  0.78813812  0.98902137  0.91938755    -0.01290
C1869       C  0.78743000  0.01048684  0.91966166     0.03700
C1870       C  0.74483443  0.02020720  0.89997107    -0.04170
C1871       C  0.70377006  0.00819993  0.87949771    -0.01280
C1872       C  0.70458133  0.98685631  0.87915210     0.03690
C1873       C  0.83261256  0.97929988  0.93924572     0.38340
C1874       C  0.65903692  0.01770431  0.85940704     0.38330
C1875       C  0.66085143  0.97498795  0.85856505     0.36760
C1876       C  0.83127393  0.02253840  0.93975713     0.36760
N1877       N  0.62631796  0.96556777  0.84189220    -0.38060
N1878       N  0.86614965  0.03211078  0.95593203    -0.38060
N1879       N  0.62369701  0.02527182  0.84315798    -0.37510
N1880       N  0.86795746  0.97155886  0.95521791    -0.37510
loop_ 
_geom_bond_atom_site_label_1 
_geom_bond_atom_site_label_2 
_geom_bond_distance 
_geom_bond_site_symmetry_2 
_ccdc_geom_bond_type 
C1            C2   1.412       .  A
C1          C758   1.413   1_554  A
C1          C116   1.510       .  S
C2            C3   1.404       .  A
C2            H7   1.072       .  S
C3          C756   1.433       .  A
C3           C21   1.534       .  S
C4            C5   1.433       .  A
C4          C191   1.431       .  A
C4            H8   1.077       .  S
C5            C6   1.408       .  A
C5           C23   1.540       .  S
C6          C189   1.413       .  A
C6            H9   1.070       .  S
C10          C11   1.402       .  A
C10          C15   1.404       .  A
C10         C175   1.492       .  S
C11          C12   1.401       .  A
C11          H16   1.082       .  S
C12          C13   1.434       .  A
C12          C30   1.532       .  S
C13          C14   1.440       .  A
C13          H17   1.076       .  S
C14          C15   1.408       .  A
C14          C32   1.543       .  S
C15          H18   1.078       .  S
C19          C20   1.402       .  A
C19          C24   1.404       .  A
C19         C178   1.492       .  S
C20          C21   1.402       .  A
C20          H25   1.081       .  S
C21          C22   1.436       .  A
C22          C23   1.438       .  A
C22          H26   1.077       .  S
C23          C24   1.407       .  A
C24          H27   1.079       .  S
C28          C33   1.412       .  A
C28         C217   1.411       .  A
C28          C37   1.507       .  S
C29          C30   1.405       .  A
C29         C780   1.411   1_554  A
C29          H34   1.078       .  S
C30         C783   1.433   1_554  A
C31          C32   1.434       .  A
C31         C218   1.431       .  A
C31          H35   1.077       .  S
C32          C33   1.408       .  A
C33          H36   1.068       .  S
C37          C42   1.419       .  A
C37         C226   1.419       .  A
C38          C39   1.407       .  A
C38         C789   1.419   1_554  A
C38          H43   1.082       .  S
C39         C792   1.384       .  A
C39          C54   1.460       .  S
C40          C41   1.373       .  A
C40         C227   1.383       .  A
C40          H44   1.085       .  S
C41          C42   1.402       .  A
C41          C49   1.455       .  S
C42          H45   1.077       .  S
O46          C49   1.265       .  A
O46         Cd51   2.412       .  S
C47          C69   1.470       .  S
C47          O56   1.265       .  A
C47          O52   1.267       .  A
O48          C54   1.270       .  A
O48         Cd51   2.334       .  S
C49          O57   1.267       .  A
C50          C72   1.460       .  S
C50          O55   1.268       .  A
C50          O53   1.268       .  A
Cd51         O58   2.441       .  S
Cd51         O57   2.394       .  S
Cd51         O56   2.456       .  S
Cd51         O52   2.488       .  S
Cd51         O55   2.436       .  S
Cd51         O53   2.437       .  S
C54          O58   1.263       .  A
C59          C64   1.421       .  A
C59         C248   1.420       .  A
C59        C1092   1.513   1_655  S
C60          C61   1.409       .  A
C60         C811   1.421   1_554  A
C60          H65   1.080   1_655  S
C61         C814   1.380       .  A
C61          C76   1.461       .  S
C62          C63   1.376       .  A
C62         C249   1.379       .  A
C62          H66   1.085       .  S
C63          C64   1.406       .  A
C63        C1011   1.457       .  S
C64          H67   1.079       .  S
O68        C1011   1.265   1_455  A
O68         Cd73   2.422   1_455  S
C69          O78   1.266       .  A
C69          O74   1.267       .  A
O70        C1016   1.270       .  A
O70       Cd1013   2.350       .  S
C71        C1003   1.456       .  S
C71          O79   1.268       .  A
C71        O1008   1.265       .  A
C72          O77   1.269       .  A
C72          O75   1.269       .  A
Cd73         O80   2.435   1_655  S
Cd73         O78   2.457   1_655  S
Cd73         O74   2.487   1_655  S
Cd73       O1010   2.355       .  S
Cd73       O1019   2.376       .  S
Cd73       O1017   2.439       .  S
Cd73       O1015   2.443       .  S
O75       Cd1013   2.436       .  S
C76          O80   1.262   1_655  A
C76        O1010   1.270       .  A
O77       Cd1013   2.433       .  S
O79       Cd1013   2.381       .  S
O81          C84   1.267       .  A
O81         Cd86   2.463       .  S
C82        C1038   1.456       .  S
C82          O91   1.269       .  A
C82        O1027   1.263   1_455  A
O83          C89   1.270       .  A
O83       Cd1026   2.464       .  S
C84         C107   1.461       .  S
C84          O92   1.265       .  A
C85          C96   1.457       .  S
C85          O88   1.261       .  A
C85        O1030   1.271       .  A
Cd86         O92   2.443       .  S
Cd86         O87   2.405       .  S
Cd86         O88   2.426       .  S
Cd86       O1023   2.461       .  S
Cd86       O1033   2.460       .  S
Cd86       O1031   2.408       .  S
Cd86       O1030   2.345       .  S
O87        C1022   1.263       .  A
C89         C104   1.470       .  S
C89          O93   1.269       .  A
O90        C1025   1.271       .  A
O90       Cd1026   2.366       .  S
O91       Cd1026   2.406       .  S
O93       Cd1026   2.455       .  S
C94          C99   1.419       .  A
C94         C283   1.416       .  A
C94        C1065   1.504       .  S
C95          C96   1.408       .  A
C95         C846   1.419   1_554  A
C95         H100   1.081       .  S
C96         C849   1.381   1_554  A
C97          C98   1.373       .  A
C97         C284   1.383       .  A
C97         H101   1.086       .  S
C98          C99   1.404       .  A
C98        C1022   1.451       .  S
C99         H102   1.079       .  S
O103        C106   1.265       .  A
O103       Cd108   2.427       .  S
C104        O113   1.266       .  A
C104        O109   1.266       .  A
O105        C111   1.270       .  A
O105       Cd108   2.363       .  S
C106        C118   1.457       .  S
C106        O114   1.268       .  A
C107        O112   1.269       .  A
C107        O110   1.268       .  A
Cd108       O115   2.427       .  S
Cd108       O114   2.361       .  S
Cd108       O113   2.472       .  S
Cd108       O109   2.478       .  S
Cd108       O112   2.446       .  S
Cd108       O110   2.429       .  S
C111        C120   1.460       .  S
C111        O115   1.264       .  A
C116        C117   1.420       .  A
C116        C873   1.420   1_554  A
C117        C118   1.404       .  A
C117        H122   1.079       .  S
C118        C119   1.376       .  A
C119        C872   1.379   1_554  A
C119        H123   1.085       .  S
C120        C121   1.406       .  A
C120        C307   1.377       .  A
C121        C304   1.421       .  A
C121        H124   1.078       .  S
C125        C130   1.413       .  A
C125        C314   1.414       .  A
C125       C1034   1.512   1_655  S
C126        C127   1.407       .  A
C126        C877   1.414   1_554  A
C126        H131   1.075       .  S
C127        C880   1.433   1_554  A
C127        C145   1.536       .  S
C128        C129   1.432       .  A
C128        C315   1.433       .  A
C128        H132   1.079       .  S
C129        C130   1.406       .  A
C129        C147   1.536       .  S
C130        H133   1.071       .  S
C134        C135   1.403       .  A
C134        C139   1.404       .  A
C134       C1101   1.491       .  S
C135        C136   1.402       .  A
C135        H140   1.082       .  S
C136        C137   1.436       .  A
C136        C154   1.533       .  S
C137        C138   1.438       .  A
C137        H141   1.078       .  S
C138        C139   1.406       .  A
C138        C156   1.538       .  S
C139        H142   1.080       .  S
C143        C144   1.405       .  A
C143        C148   1.405       .  A
C143        C164   1.496       .  S
C144        C145   1.406       .  A
C144        H149   1.080       .  S
C145        C146   1.436       .  A
C146        C147   1.436       .  A
C146        H150   1.078       .  S
C147        C148   1.406       .  A
C148        H151   1.082       .  S
C152        C157   1.414       .  A
C152        C341   1.413       .  A
C152        C999   1.510       .  S
C153        C154   1.404       .  A
C153        C904   1.412   1_554  A
C153        H158   1.075       .  S
C154        C907   1.433       .  A
C155        C156   1.433       .  A
C155        C342   1.432       .  A
C155        H159   1.079       .  S
C156        C157   1.407       .  A
C157        H160   1.071       .  S
C161        C162   1.416       .  A
C161       C1106   1.415   1_455  A
C161       C1074   1.495       .  S
C162        C163   1.411       .  A
C162        C167   1.452       .  S
C163        C164   1.416   1_455  A
C163        C170   1.452       .  S
C164       C1105   1.416       .  A
C165        C166   1.412       .  A
C165       C1104   1.414       .  A
C165        C168   1.451       .  S
C166       C1101   1.415       .  A
C166        C169   1.451       .  S
C167        N174   1.157       .  T
C168        N173   1.157       .  T
C169        N171   1.157       .  T
C170        N172   1.157       .  T
C175        C176   1.415       .  A
C175        C180   1.415       .  A
C176        C177   1.412   1_565  A
C176        C181   1.452       .  S
C177        C178   1.415       .  A
C177        C184   1.451       .  S
C178        C179   1.416       .  A
C179        C180   1.407   1_545  A
C179        C182   1.453       .  S
C180        C183   1.453       .  S
C181        N188   1.157       .  T
C182        N187   1.157       .  T
C183        N185   1.157       .  T
C184        N186   1.157       .  T
C189        C190   1.413       .  A
C189        C304   1.511       .  S
C190        C191   1.403       .  A
C190        H195   1.077       .  S
C191        C209   1.532       .  S
C192        C379   1.432       .  A
C192        C193   1.433       .  A
C192        H196   1.078       .  S
C193        C194   1.407       .  A
C193        C211   1.537       .  S
C194        C377   1.413       .  A
C194        H197   1.076       .  S
C198        C199   1.404       .  A
C198        C203   1.406       .  A
C198        C363   1.495       .  S
C199        C200   1.402       .  A
C199        H204   1.082       .  S
C200        C201   1.432       .  A
C200        C218   1.531       .  S
C201        C202   1.438       .  A
C201        H205   1.078       .  S
C202        C203   1.410       .  A
C202        C220   1.540       .  S
C203        H206   1.080       .  S
C207        C208   1.404       .  A
C207        C212   1.406       .  A
C207        C366   1.495       .  S
C208        C209   1.403       .  A
C208        H213   1.082       .  S
C209        C210   1.434       .  A
C210        C211   1.437       .  A
C210        H214   1.079       .  S
C211        C212   1.409       .  A
C212        H215   1.080       .  S
C216        C405   1.411       .  A
C216        C221   1.413       .  A
C216        C225   1.510       .  S
C217        C218   1.404       .  A
C217        H222   1.079       .  S
C219        C406   1.432       .  A
C219        C220   1.432       .  A
C219        H223   1.078       .  S
C220        C221   1.408       .  A
C221        H224   1.069       .  S
C225        C414   1.421       .  A
C225        C230   1.419       .  A
C226        C227   1.408       .  A
C226        H231   1.082       .  S
C227        C242   1.460       .  S
C228        C415   1.382       .  A
C228        C229   1.372       .  A
C228        H232   1.085       .  S
C229        C230   1.402       .  A
C229        C237   1.453       .  S
C230        H233   1.077       .  S
O234        C237   1.264       .  A
O234       Cd239   2.410       .  S
C235        C257   1.468       .  S
C235        O244   1.265       .  A
C235        O240   1.267       .  A
O236        C242   1.270       .  A
O236       Cd239   2.334       .  S
C237        O245   1.268       .  A
C238        C260   1.460       .  S
C238        O243   1.268       .  A
C238        O241   1.268       .  A
Cd239       O246   2.441       .  S
Cd239       O245   2.390       .  S
Cd239       O244   2.455       .  S
Cd239       O240   2.484       .  S
Cd239       O243   2.438       .  S
Cd239       O241   2.438       .  S
C242        O246   1.263       .  A
C247        C436   1.422       .  A
C247        C252   1.420       .  A
C247       C1280   1.514   1_655  S
C248        C249   1.407       .  A
C248        H253   1.080   1_655  S
C249        C264   1.459       .  S
C250        C437   1.380       .  A
C250        C251   1.374       .  A
C250        H254   1.085       .  S
C251        C252   1.403       .  A
C251       C1199   1.454       .  S
C252        H255   1.078       .  S
O256       C1199   1.265   1_455  A
O256       Cd261   2.414   1_455  S
C257        O266   1.265       .  A
C257        O262   1.267       .  A
O258       C1204   1.270       .  A
O258      Cd1201   2.354       .  S
C259       C1191   1.456       .  S
C259       O1196   1.264       .  A
C259        O267   1.269       .  A
C260        O265   1.269       .  A
C260        O263   1.269       .  A
Cd261      O1198   2.348       .  S
Cd261       O268   2.430   1_655  S
Cd261      O1207   2.377       .  S
Cd261       O266   2.453   1_655  S
Cd261       O262   2.482   1_655  S
Cd261      O1205   2.433       .  S
Cd261      O1203   2.435       .  S
O263      Cd1201   2.437       .  S
C264       O1198   1.270       .  A
C264        O268   1.263   1_655  A
O265      Cd1201   2.438       .  S
O267      Cd1201   2.358       .  S
O269        C272   1.267       .  A
O269       Cd274   2.462       .  S
C270       C1226   1.455       .  S
C270        O279   1.268       .  A
C270       O1215   1.263   1_455  A
O271        C277   1.269       .  A
O271      Cd1214   2.459   1_455  S
C272        C295   1.461       .  S
C272        O280   1.265       .  A
C273        C284   1.457       .  S
C273       O1218   1.271       .  A
C273        O276   1.261       .  A
Cd274      O1211   2.456       .  S
Cd274      O1221   2.452       .  S
Cd274       O280   2.436       .  S
Cd274      O1219   2.401       .  S
Cd274       O275   2.407       .  S
Cd274      O1218   2.330       .  S
Cd274       O276   2.430       .  S
O275       C1210   1.265       .  A
C277        C292   1.467       .  S
C277        O281   1.269       .  A
O278       C1213   1.271       .  A
O278      Cd1214   2.353   1_455  S
O279      Cd1214   2.384   1_455  S
O281      Cd1214   2.452   1_455  S
C282        C471   1.418       .  A
C282        C287   1.419       .  A
C282       C1253   1.510       .  S
C283        C284   1.407       .  A
C283        H288   1.082       .  S
C285        C472   1.381       .  A
C285        C286   1.374       .  A
C285        H289   1.086       .  S
C286        C287   1.403       .  A
C286       C1210   1.452       .  S
C287        H290   1.078       .  S
O291        C294   1.265       .  A
O291       Cd296   2.432       .  S
C292        O301   1.266       .  A
C292        O297   1.266       .  A
O293        C299   1.270       .  A
O293       Cd296   2.341       .  S
C294        C306   1.456       .  S
C294        O302   1.268       .  A
C295        O300   1.269       .  A
C295        O298   1.268       .  A
Cd296       O303   2.437       .  S
Cd296       O302   2.348       .  S
Cd296       O301   2.463       .  S
Cd296       O297   2.467       .  S
Cd296       O300   2.452       .  S
Cd296       O298   2.430       .  S
C299        C308   1.460       .  S
C299        O303   1.263       .  A
C304        C305   1.419       .  A
C305        C306   1.405       .  A
C305        H310   1.081       .  S
C306        C307   1.379       .  A
C307        H311   1.085       .  S
C308        C495   1.380       .  A
C308        C309   1.407       .  A
C309        C492   1.420       .  A
C309        H312   1.081       .  S
C313        C502   1.414       .  A
C313        C318   1.415       .  A
C313       C1222   1.515   1_655  S
C314        C315   1.408       .  A
C314        H319   1.078   1_655  S
C315        C333   1.537       .  S
C316        C503   1.433       .  A
C316        C317   1.431       .  A
C316        H320   1.079       .  S
C317        C318   1.404       .  A
C317        C335   1.534       .  S
C318        H321   1.075   1_655  S
C322        C323   1.404       .  A
C322        C327   1.406       .  A
C322       C1289   1.494       .  S
C323        C324   1.402       .  A
C323        H328   1.082       .  S
C324        C325   1.435       .  A
C324        C342   1.531       .  S
C325        C326   1.438       .  A
C325        H329   1.079       .  S
C326        C327   1.409       .  A
C326        C344   1.538       .  S
C327        H330   1.080       .  S
C331        C332   1.406       .  A
C331        C336   1.405       .  A
C331        C352   1.496       .  S
C332        C333   1.407       .  A
C332        H337   1.080       .  S
C333        C334   1.436       .  A
C334        C335   1.436       .  A
C334        H338   1.079       .  S
C335        C336   1.405       .  A
C336        H339   1.082       .  S
C340        C529   1.413       .  A
C340        C345   1.415       .  A
C340       C1187   1.513       .  S
C341        C342   1.403       .  A
C341        H346   1.077       .  S
C343        C530   1.433       .  A
C343        C344   1.432       .  A
C343        H347   1.078       .  S
C344        C345   1.407       .  A
C345        H348   1.073       .  S
C349        C350   1.416       .  A
C349       C1294   1.415   1_455  A
C349       C1262   1.496       .  S
C350        C351   1.412       .  A
C350        C355   1.452       .  S
C351        C352   1.415   1_455  A
C351        C358   1.452       .  S
C352       C1293   1.416       .  A
C353       C1292   1.414       .  A
C353        C354   1.414       .  A
C353        C356   1.451       .  S
C354       C1289   1.416       .  A
C354        C357   1.451       .  S
C355        N362   1.157       .  T
C356        N361   1.157       .  T
C357        N359   1.157       .  T
C358        N360   1.157       .  T
C363        C364   1.416       .  A
C363        C368   1.415       .  A
C364        C365   1.415   1_565  A
C364        C369   1.451       .  S
C365        C366   1.416       .  A
C365        C372   1.451       .  S
C366        C367   1.415       .  A
C367        C368   1.407   1_545  A
C367        C370   1.453       .  S
C368        C371   1.453       .  S
C369        N376   1.157       .  T
C370        N375   1.157       .  T
C371        N373   1.157       .  T
C372        N374   1.157       .  T
C377        C378   1.412       .  A
C377        C492   1.510       .  S
C378        C379   1.403       .  A
C378        H383   1.071       .  S
C379        C397   1.534       .  S
C380        C567   1.432       .  A
C380        C381   1.432       .  A
C380        H384   1.078       .  S
C381        C382   1.407       .  A
C381        C399   1.537       .  S
C382        C565   1.413       .  A
C382        H385   1.073       .  S
C386        C387   1.402       .  A
C386        C391   1.405       .  A
C386        C551   1.493       .  S
C387        C388   1.402       .  A
C387        H392   1.082       .  S
C388        C389   1.434       .  A
C388        C406   1.531       .  S
C389        C390   1.438       .  A
C389        H393   1.077       .  S
C390        C391   1.408       .  A
C390        C408   1.539       .  S
C391        H394   1.079       .  S
C395        C396   1.403       .  A
C395        C400   1.405       .  A
C395        C554   1.493       .  S
C396        C397   1.402       .  A
C396        H401   1.082       .  S
C397        C398   1.436       .  A
C398        C399   1.436       .  A
C398        H402   1.078       .  S
C399        C400   1.407       .  A
C400        H403   1.080       .  S
C404        C593   1.410       .  A
C404        C409   1.412       .  A
C404        C413   1.505       .  S
C405        C406   1.404       .  A
C405        H410   1.078       .  S
C407        C594   1.432       .  A
C407        C408   1.433       .  A
C407        H411   1.078       .  S
C408        C409   1.407       .  A
C409        H412   1.070       .  S
C413        C602   1.418       .  A
C413        C418   1.419       .  A
C414        C415   1.407       .  A
C414        H419   1.082       .  S
C415        C430   1.460       .  S
C416        C603   1.385       .  A
C416        C417   1.373       .  A
C416        H420   1.086       .  S
C417        C418   1.402       .  A
C417        C425   1.454       .  S
C418        H421   1.077       .  S
O422        C425   1.267       .  A
O422       Cd427   2.407       .  S
C423        C445   1.470       .  S
C423        O432   1.265       .  A
C423        O428   1.268       .  A
O424        C430   1.270       .  A
O424       Cd427   2.325       .  S
C425        O433   1.266       .  A
C426        C448   1.460       .  S
C426        O431   1.268       .  A
C426        O429   1.269       .  A
Cd427       O434   2.445       .  S
Cd427       O433   2.405       .  S
Cd427       O432   2.448       .  S
Cd427       O428   2.496       .  S
Cd427       O431   2.434       .  S
Cd427       O429   2.438       .  S
C430        O434   1.262       .  A
C435        C624   1.420       .  A
C435        C440   1.420       .  A
C435       C1468   1.513   1_655  S
C436        C437   1.409       .  A
C436        H441   1.081   1_655  S
C437        C452   1.462       .  S
C438        C625   1.378       .  A
C438        C439   1.378       .  A
C438        H442   1.086       .  S
C439        C440   1.406       .  A
C439       C1387   1.457       .  S
C440        H443   1.080       .  S
O444       C1387   1.265   1_455  A
O444       Cd449   2.425   1_455  S
C445        O454   1.265       .  A
C445        O450   1.268       .  A
O446       C1392   1.271       .  A
O446      Cd1389   2.349       .  S
C447       C1379   1.455       .  S
C447       O1384   1.266       .  A
C447        O455   1.267       .  A
C448        O453   1.269       .  A
C448        O451   1.269       .  A
Cd449      O1386   2.345       .  S
Cd449       O456   2.446   1_655  S
Cd449      O1395   2.372       .  S
Cd449       O454   2.449   1_655  S
Cd449       O450   2.493   1_655  S
Cd449      O1393   2.445       .  S
Cd449      O1391   2.447       .  S
O451      Cd1389   2.437       .  S
C452       O1386   1.271       .  A
C452        O456   1.262   1_655  A
O453      Cd1389   2.433       .  S
O455      Cd1389   2.380       .  S
O457        C460   1.266       .  A
O457       Cd462   2.459       .  S
C458       C1414   1.457       .  S
C458        O467   1.269       .  A
C458       O1403   1.263   1_455  A
O459        C465   1.270       .  A
O459      Cd1402   2.461       .  S
C460        C483   1.461       .  S
C460        O468   1.266       .  A
C461        C472   1.458       .  S
C461       O1406   1.270       .  A
C461        O464   1.261       .  A
Cd462      O1399   2.463       .  S
Cd462      O1409   2.459       .  S
Cd462       O468   2.447       .  S
Cd462      O1407   2.395       .  S
Cd462       O463   2.410       .  S
Cd462      O1406   2.354       .  S
Cd462       O464   2.423       .  S
O463       C1398   1.262       .  A
C465        C480   1.469       .  S
C465        O469   1.269       .  A
O466       C1401   1.271       .  A
O466      Cd1402   2.370       .  S
O467      Cd1402   2.403       .  S
O469      Cd1402   2.454       .  S
C470        C659   1.418       .  A
C470        C475   1.419       .  A
C470       C1441   1.506       .  S
C471        C472   1.408       .  A
C471        H476   1.081       .  S
C473        C660   1.382       .  A
C473        C474   1.373       .  A
C473        H477   1.085       .  S
C474        C475   1.403       .  A
C474       C1398   1.452       .  S
C475        H478   1.079       .  S
O479        C482   1.265       .  A
O479       Cd484   2.422       .  S
C480        O489   1.266       .  A
C480        O485   1.267       .  A
O481        C487   1.271       .  A
O481       Cd484   2.356       .  S
C482        C494   1.455       .  S
C482        O490   1.268       .  A
C483        O488   1.269       .  A
C483        O486   1.268       .  A
Cd484       O491   2.430       .  S
Cd484       O490   2.365       .  S
Cd484       O489   2.469       .  S
Cd484       O485   2.477       .  S
Cd484       O488   2.444       .  S
Cd484       O486   2.429       .  S
C487        C496   1.460       .  S
C487        O491   1.263       .  A
C492        C493   1.420       .  A
C493        C494   1.403       .  A
C493        H498   1.078       .  S
C494        C495   1.375       .  A
C495        H499   1.085       .  S
C496        C683   1.378       .  A
C496        C497   1.407       .  A
C497        C680   1.421       .  A
C497        H500   1.079       .  S
C501        C690   1.414       .  A
C501        C506   1.414       .  A
C501       C1410   1.512   1_655  S
C502        C503   1.409       .  A
C502        H507   1.073       .  S
C503        C521   1.538       .  S
C504        C691   1.432       .  A
C504        C505   1.432       .  A
C504        H508   1.079       .  S
C505        C506   1.407       .  A
C505        C523   1.538       .  S
C506        H509   1.071       .  S
C510        C511   1.403       .  A
C510        C515   1.404       .  A
C510       C1477   1.491       .  S
C511        C512   1.403       .  A
C511        H516   1.082       .  S
C512        C513   1.436       .  A
C512        C530   1.534       .  S
C513        C514   1.438       .  A
C513        H517   1.078       .  S
C514        C515   1.406       .  A
C514        C532   1.537       .  S
C515        H518   1.080       .  S
C519        C520   1.405       .  A
C519        C524   1.405       .  A
C519        C540   1.496       .  S
C520        C521   1.406       .  A
C520        H525   1.080       .  S
C521        C522   1.436       .  A
C522        C523   1.437       .  A
C522        H526   1.078       .  S
C523        C524   1.407       .  A
C524        H527   1.081       .  S
C528        C717   1.412       .  A
C528        C533   1.414       .  A
C528       C1375   1.510       .  S
C529        C530   1.405       .  A
C529        H534   1.074       .  S
C531        C718   1.432       .  A
C531        C532   1.433       .  A
C531        H535   1.079       .  S
C532        C533   1.406       .  A
C533        H536   1.071       .  S
C537        C538   1.416   1_655  A
C537       C1482   1.415       .  A
C537       C1450   1.496   1_655  S
C538        C539   1.411       .  A
C538        C543   1.452       .  S
C539        C540   1.415   1_455  A
C539        C546   1.452       .  S
C540       C1481   1.416       .  A
C541       C1480   1.414       .  A
C541        C542   1.412       .  A
C541        C544   1.451       .  S
C542       C1477   1.415       .  A
C542        C545   1.451       .  S
C543        N550   1.157       .  T
C544        N549   1.157       .  T
C545        N547   1.157       .  T
C546        N548   1.157       .  T
C551        C552   1.415       .  A
C551        C556   1.415       .  A
C552        C553   1.413   1_565  A
C552        C557   1.451       .  S
C553        C554   1.415       .  A
C553        C560   1.451       .  S
C554        C555   1.415       .  A
C555        C556   1.406   1_545  A
C555        C558   1.453       .  S
C556        C559   1.453       .  S
C557        N564   1.157       .  T
C558        N563   1.157       .  T
C559        N561   1.157       .  T
C560        N562   1.157       .  T
C565        C566   1.413       .  A
C565        C680   1.511       .  S
C566        C567   1.404       .  A
C566        H571   1.075       .  S
C567        C585   1.534       .  S
C568        C755   1.431       .  A
C568        C569   1.434       .  A
C568        H572   1.077       .  S
C569        C570   1.408       .  A
C569        C587   1.540       .  S
C570        C753   1.413       .  A
C570        H573   1.072       .  S
C574        C575   1.402       .  A
C574        C579   1.405       .  A
C574        C739   1.493       .  S
C575        C576   1.402       .  A
C575        H580   1.082       .  S
C576        C577   1.434       .  A
C576        C594   1.532       .  S
C577        C578   1.440       .  A
C577        H581   1.075       .  S
C578        C579   1.409       .  A
C578        C596   1.544       .  S
C579        H582   1.078       .  S
C583        C584   1.403       .  A
C583        C588   1.405       .  A
C583        C742   1.494       .  S
C584        C585   1.402       .  A
C584        H589   1.082       .  S
C585        C586   1.435       .  A
C586        C587   1.438       .  A
C586        H590   1.078       .  S
C587        C588   1.408       .  A
C588        H591   1.079       .  S
C592        C781   1.411       .  A
C592        C597   1.414       .  A
C592        C601   1.511       .  S
C593        C594   1.405       .  A
C593        H598   1.079       .  S
C595        C782   1.431       .  A
C595        C596   1.434       .  A
C595        H599   1.077       .  S
C596        C597   1.409       .  A
C597        H600   1.062       .  S
C601        C790   1.421       .  A
C601        C606   1.420       .  A
C602        C603   1.408       .  A
C602        H607   1.082       .  S
C603        C618   1.461       .  S
C604        C791   1.381       .  A
C604        C605   1.372       .  A
C604        H608   1.085       .  S
C605        C606   1.402       .  A
C605        C613   1.454       .  S
C606        H609   1.074       .  S
O610        C613   1.264       .  A
O610       Cd615   2.416       .  S
C611        C633   1.470       .  S
C611        O620   1.266       .  A
C611        O616   1.266       .  A
O612        C618   1.270       .  A
O612       Cd615   2.339       .  S
C613        O621   1.268       .  A
C614        C636   1.461       .  S
C614        O619   1.268       .  A
C614        O617   1.268       .  A
Cd615       O622   2.442       .  S
Cd615       O621   2.384       .  S
Cd615       O620   2.464       .  S
Cd615       O616   2.480       .  S
Cd615       O619   2.440       .  S
Cd615       O617   2.441       .  S
C618        O622   1.263       .  A
C623        C812   1.422       .  A
C623        C628   1.421       .  A
C623       C1656   1.513   1_655  S
C624        C625   1.407       .  A
C624        H629   1.079       .  S
C625        C640   1.459       .  S
C626        C813   1.379       .  A
C626        C627   1.374       .  A
C626        H630   1.085       .  S
C627        C628   1.404       .  A
C627       C1575   1.457       .  S
C628        H631   1.078       .  S
O632       C1575   1.264   1_455  A
O632       Cd637   2.418   1_455  S
C633        O642   1.266       .  A
C633        O638   1.267       .  A
O634       C1580   1.270       .  A
O634      Cd1577   2.351       .  S
C635       C1567   1.456       .  S
C635       O1572   1.264       .  A
C635        O643   1.268       .  A
C636        O641   1.269       .  A
C636        O639   1.269       .  A
Cd637      O1574   2.369       .  S
Cd637       O644   2.421   1_655  S
Cd637      O1583   2.372       .  S
Cd637       O642   2.465   1_655  S
Cd637       O638   2.480   1_655  S
Cd637      O1581   2.431       .  S
Cd637      O1579   2.435       .  S
O639      Cd1577   2.439       .  S
C640       O1574   1.270       .  A
C640        O644   1.263   1_655  A
O641      Cd1577   2.436       .  S
O643      Cd1577   2.370       .  S
O645        C648   1.267       .  A
O645       Cd650   2.463       .  S
C646       C1602   1.455       .  S
C646        O655   1.268       .  A
C646       O1591   1.263   1_455  A
O647        C653   1.270       .  A
O647      Cd1590   2.463       .  S
C648        C671   1.461       .  S
C648        O656   1.265       .  A
C649        C660   1.457       .  S
C649       O1594   1.271       .  A
C649        O652   1.261       .  A
Cd650      O1587   2.456       .  S
Cd650      O1597   2.456       .  S
Cd650       O656   2.436       .  S
Cd650      O1595   2.411       .  S
Cd650       O651   2.402       .  S
Cd650      O1594   2.329       .  S
Cd650       O652   2.431       .  S
O651       C1586   1.264       .  A
C653        C668   1.469       .  S
C653        O657   1.269       .  A
O654       C1589   1.271       .  A
O654      Cd1590   2.355       .  S
O655      Cd1590   2.394       .  S
O657      Cd1590   2.454       .  S
C658        C847   1.417       .  A
C658        C663   1.419       .  A
C658       C1629   1.506       .  S
C659        C660   1.407       .  A
C659        H664   1.081       .  S
C661        C848   1.383       .  A
C661        C662   1.373       .  A
C661        H665   1.086       .  S
C662        C663   1.403       .  A
C662       C1586   1.451       .  S
C663        H666   1.079       .  S
O667        C670   1.265       .  A
O667       Cd672   2.429       .  S
C668        O677   1.266       .  A
C668        O673   1.266       .  A
O669        C675   1.270       .  A
O669       Cd672   2.353       .  S
C670        C682   1.457       .  S
C670        O678   1.268       .  A
C671        O676   1.269       .  A
C671        O674   1.268       .  A
Cd672       O679   2.431       .  S
Cd672       O678   2.355       .  S
Cd672       O677   2.467       .  S
Cd672       O673   2.474       .  S
Cd672       O676   2.448       .  S
Cd672       O674   2.429       .  S
C675        C684   1.459       .  S
C675        O679   1.263       .  A
C680        C681   1.419       .  A
C681        C682   1.405       .  A
C681        H686   1.080       .  S
C682        C683   1.378       .  A
C683        H687   1.085       .  S
C684        C871   1.377       .  A
C684        C685   1.406       .  A
C685        C868   1.421       .  A
C685        H688   1.079       .  S
C689        C878   1.415       .  A
C689        C694   1.414       .  A
C689       C1598   1.515   1_655  S
C690        C691   1.407       .  A
C690        H695   1.078   1_655  S
C691        C709   1.535       .  S
C692        C879   1.433       .  A
C692        C693   1.431       .  A
C692        H696   1.079       .  S
C693        C694   1.404       .  A
C693        C711   1.534       .  S
C694        H697   1.073   1_655  S
C698        C699   1.403       .  A
C698        C703   1.405       .  A
C698       C1665   1.492       .  S
C699        C700   1.402       .  A
C699        H704   1.082       .  S
C700        C701   1.435       .  A
C700        C718   1.532       .  S
C701        C702   1.437       .  A
C701        H705   1.079       .  S
C702        C703   1.408       .  A
C702        C720   1.538       .  S
C703        H706   1.080       .  S
C707        C708   1.406       .  A
C707        C712   1.405       .  A
C707        C728   1.496       .  S
C708        C709   1.407       .  A
C708        H713   1.081       .  S
C709        C710   1.436       .  A
C710        C711   1.436       .  A
C710        H714   1.079       .  S
C711        C712   1.405       .  A
C712        H715   1.082       .  S
C716        C905   1.414       .  A
C716        C721   1.415       .  A
C716       C1563   1.513       .  S
C717        C718   1.403       .  A
C717        H722   1.077       .  S
C719        C906   1.431       .  A
C719        C720   1.432       .  A
C719        H723   1.079       .  S
C720        C721   1.407       .  A
C721        H724   1.072       .  S
C725        C726   1.415       .  A
C725       C1670   1.415   1_455  A
C725       C1638   1.495       .  S
C726        C727   1.412       .  A
C726        C731   1.452       .  S
C727        C728   1.415   1_455  A
C727        C734   1.452       .  S
C728       C1669   1.415       .  A
C729       C1668   1.414       .  A
C729        C730   1.413       .  A
C729        C732   1.451       .  S
C730       C1665   1.415       .  A
C730        C733   1.451       .  S
C731        N738   1.157       .  T
C732        N737   1.157       .  T
C733        N735   1.157       .  T
C734        N736   1.157       .  T
C739        C740   1.415       .  A
C739        C744   1.415       .  A
C740        C741   1.413   1_565  A
C740        C745   1.451       .  S
C741        C742   1.416       .  A
C741        C748   1.451       .  S
C742        C743   1.415       .  A
C743        C744   1.407   1_545  A
C743        C746   1.453       .  S
C744        C747   1.453       .  S
C745        N752   1.157       .  T
C746        N751   1.157       .  T
C747        N749   1.157       .  T
C748        N750   1.157       .  T
C753        C754   1.412       .  A
C753        C868   1.510       .  S
C754        C755   1.403       .  A
C754        H759   1.075       .  S
C755        C773   1.532       .  S
C756        C757   1.432   1_554  A
C756        H760   1.078       .  S
C757        C758   1.407       .  A
C757        C775   1.536       .  S
C758        H761   1.075       .  S
C762        C763   1.404       .  A
C762        C767   1.406       .  A
C762        C927   1.496       .  S
C763        C764   1.403       .  A
C763        H768   1.082       .  S
C764        C765   1.432       .  A
C764        C782   1.531       .  S
C765        C766   1.436       .  A
C765        H769   1.078       .  S
C766        C767   1.409       .  A
C766        C784   1.537       .  S
C767        H770   1.080       .  S
C771        C772   1.404       .  A
C771        C776   1.406       .  A
C771        C930   1.496       .  S
C772        C773   1.402       .  A
C772        H777   1.082       .  S
C773        C774   1.434       .  A
C774        C775   1.436       .  A
C774        H778   1.079       .  S
C775        C776   1.409       .  A
C776        H779   1.080       .  S
C780        C785   1.412       .  A
C780        C789   1.508       .  S
C781        C782   1.404       .  A
C781        H786   1.078       .  S
C783        C784   1.431       .  A
C783        H787   1.078       .  S
C784        C785   1.407       .  A
C785        H788   1.070       .  S
C789        C794   1.419       .  A
C790        C791   1.408       .  A
C790        H795   1.081       .  S
C791        C806   1.460       .  S
C792        C793   1.373   1_554  A
C792        H796   1.086       .  S
C793        C794   1.402       .  A
C793        C801   1.453       .  S
C794        H797   1.077       .  S
O798        C801   1.266       .  A
O798       Cd803   2.406       .  S
C799        C821   1.470       .  S
C799        O808   1.265       .  A
C799        O804   1.268       .  A
O800        C806   1.270       .  A
O800       Cd803   2.325       .  S
C801        O809   1.267       .  A
C802        C824   1.460       .  S
C802        O807   1.268       .  A
C802        O805   1.269       .  A
Cd803       O810   2.447       .  S
Cd803       O809   2.401       .  S
Cd803       O808   2.448       .  S
Cd803       O804   2.496       .  S
Cd803       O807   2.436       .  S
Cd803       O805   2.439       .  S
C806        O810   1.262       .  A
C811        C816   1.420       .  A
C811       C1844   1.513   1_655  S
C812        C813   1.408       .  A
C812        H817   1.081   1_655  S
C813        C828   1.461       .  S
C814        C815   1.375   1_554  A
C814        H818   1.086       .  S
C815        C816   1.404       .  A
C815       C1763   1.455       .  S
C816        H819   1.078       .  S
O820       C1763   1.265   1_455  A
O820       Cd825   2.414   1_455  S
C821        O830   1.265       .  A
C821        O826   1.268       .  A
O822       C1768   1.270       .  A
O822      Cd1765   2.355       .  S
C823       C1755   1.455       .  S
C823       O1760   1.264       .  A
C823        O831   1.268       .  A
C824        O829   1.269       .  A
C824        O827   1.269       .  A
Cd825      O1762   2.341       .  S
Cd825       O832   2.442   1_655  S
Cd825      O1771   2.382       .  S
Cd825       O830   2.447   1_655  S
Cd825       O826   2.492   1_655  S
Cd825      O1769   2.441       .  S
Cd825      O1767   2.441       .  S
O827      Cd1765   2.437       .  S
C828       O1762   1.271       .  A
C828        O832   1.262   1_655  A
O829      Cd1765   2.437       .  S
O831      Cd1765   2.366       .  S
O833        C836   1.267       .  A
O833       Cd838   2.459       .  S
C834       C1790   1.455       .  S
C834        O843   1.269       .  A
C834       O1779   1.263   1_455  A
O835        C841   1.270       .  A
O835      Cd1778   2.455       .  S
C836        C859   1.461       .  S
C836        O844   1.266       .  A
C837        C848   1.458       .  S
C837       O1782   1.271       .  A
C837        O840   1.261       .  A
Cd838      O1775   2.456       .  S
Cd838      O1785   2.456       .  S
Cd838       O844   2.440       .  S
Cd838      O1783   2.395       .  S
Cd838       O839   2.407       .  S
Cd838      O1782   2.342       .  S
Cd838       O840   2.428       .  S
O839       C1774   1.264       .  A
C841        C856   1.467       .  S
C841        O845   1.269       .  A
O842       C1777   1.270       .  A
O842      Cd1778   2.363       .  S
O843      Cd1778   2.387       .  S
O845      Cd1778   2.452       .  S
C846        C851   1.419       .  A
C846       C1817   1.509       .  S
C847        C848   1.408       .  A
C847        H852   1.082       .  S
C849        C850   1.373       .  A
C849        H853   1.086       .  S
C850        C851   1.403       .  A
C850       C1774   1.451       .  S
C851        H854   1.078       .  S
O855        C858   1.265       .  A
O855       Cd860   2.429       .  S
C856        O865   1.266       .  A
C856        O861   1.266       .  A
O857        C863   1.270       .  A
O857       Cd860   2.348       .  S
C858        C870   1.456       .  S
C858        O866   1.268       .  A
C859        O864   1.269       .  A
C859        O862   1.268       .  A
Cd860       O867   2.432       .  S
Cd860       O866   2.349       .  S
Cd860       O865   2.466       .  S
Cd860       O861   2.465       .  S
Cd860       O864   2.448       .  S
Cd860       O862   2.429       .  S
C863        C872   1.460       .  S
C863        O867   1.263       .  A
C868        C869   1.419       .  A
C869        C870   1.404       .  A
C869        H874   1.080       .  S
C870        C871   1.377       .  A
C871        H875   1.085       .  S
C872        C873   1.407       .  A
C873        H876   1.080       .  S
C877        C882   1.415       .  A
C877       C1786   1.515   1_655  S
C878        C879   1.409       .  A
C878        H883   1.075       .  S
C879        C897   1.539       .  S
C880        C881   1.432       .  A
C880        H884   1.079       .  S
C881        C882   1.406       .  A
C881        C899   1.536       .  S
C882        H885   1.073   1_655  S
C886        C887   1.404       .  A
C886        C891   1.405       .  A
C886       C1853   1.493       .  S
C887        C888   1.403       .  A
C887        H892   1.082       .  S
C888        C889   1.435       .  A
C888        C906   1.533       .  S
C889        C890   1.438       .  A
C889        H893   1.079       .  S
C890        C891   1.407       .  A
C890        C908   1.537       .  S
C891        H894   1.080       .  S
C895        C896   1.405       .  A
C895        C900   1.405       .  A
C895        C916   1.496       .  S
C896        C897   1.407       .  A
C896        H901   1.080       .  S
C897        C898   1.437       .  A
C898        C899   1.437       .  A
C898        H902   1.079       .  S
C899        C900   1.406       .  A
C900        H903   1.082       .  S
C904        C909   1.414       .  A
C904       C1751   1.511   1_556  S
C905        C906   1.405       .  A
C905        H910   1.076       .  S
C907        C908   1.433   1_554  A
C907        H911   1.079       .  S
C908        C909   1.406       .  A
C909        H912   1.073       .  S
C913        C914   1.416       .  A
C913       C1858   1.415   1_455  A
C913       C1826   1.496       .  S
C914        C915   1.411       .  A
C914        C919   1.452       .  S
C915        C916   1.415   1_455  A
C915        C922   1.452       .  S
C916       C1857   1.416       .  A
C917       C1856   1.415       .  A
C917        C918   1.413       .  A
C917        C920   1.451       .  S
C918       C1853   1.415       .  A
C918        C921   1.451       .  S
C919        N926   1.157       .  T
C920        N925   1.157       .  T
C921        N923   1.157       .  T
C922        N924   1.157       .  T
C927        C928   1.416       .  A
C927        C932   1.416       .  A
C928        C929   1.415   1_565  A
C928        C933   1.451       .  S
C929        C930   1.416       .  A
C929        C936   1.451       .  S
C930        C931   1.416       .  A
C931        C932   1.407   1_545  A
C931        C934   1.453       .  S
C932        C935   1.453       .  S
C933        N940   1.157       .  T
C934        N939   1.157       .  T
C935        N937   1.157       .  T
C936        N938   1.157       .  T
C941        C942   1.413       .  A
C941       C1698   1.414   1_554  A
C941       C1056   1.512       .  S
C942        C943   1.405       .  A
C942        H947   1.072       .  S
C943       C1696   1.432       .  A
C943        C961   1.535       .  S
C944       C1131   1.431       .  A
C944        C945   1.434       .  A
C944        H948   1.077       .  S
C945        C946   1.408       .  A
C945        C963   1.540       .  S
C946       C1129   1.413       .  A
C946        H949   1.070       .  S
C950        C951   1.402       .  A
C950        C955   1.405       .  A
C950       C1115   1.493       .  S
C951        C952   1.402       .  A
C951        H956   1.081       .  S
C952        C953   1.434       .  A
C952        C970   1.533       .  S
C953        C954   1.439       .  A
C953        H957   1.076       .  S
C954        C955   1.408       .  A
C954        C972   1.542       .  S
C955        H958   1.078       .  S
C959        C960   1.403       .  A
C959        C964   1.405       .  A
C959       C1118   1.494       .  S
C960        C961   1.403       .  A
C960        H965   1.081       .  S
C961        C962   1.435       .  A
C962        C963   1.438       .  A
C962        H966   1.077       .  S
C963        C964   1.408       .  A
C964        H967   1.079       .  S
C968       C1157   1.412       .  A
C968        C973   1.413       .  A
C968        C977   1.509       .  S
C969       C1720   1.412   1_554  A
C969        C970   1.406       .  A
C969        H974   1.078       .  S
C970       C1723   1.432   1_554  A
C971       C1158   1.431       .  A
C971        C972   1.434       .  A
C971        H975   1.077       .  S
C972        C973   1.407       .  A
C973        H976   1.065       .  S
C977       C1166   1.419       .  A
C977        C982   1.420       .  A
C978       C1729   1.421   1_554  A
C978        C979   1.409       .  A
C978        H983   1.082       .  S
C979       C1732   1.383       .  A
C979        C994   1.462       .  S
C980       C1167   1.382       .  A
C980        C981   1.374       .  A
C980        H984   1.085       .  S
C981        C982   1.403       .  A
C981        C989   1.455       .  S
C982        H985   1.076       .  S
O986        C989   1.265       .  A
O986       Cd991   2.413       .  S
C987       C1009   1.470       .  S
C987        O996   1.265       .  A
C987        O992   1.267       .  A
O988        C994   1.271       .  A
O988       Cd991   2.337       .  S
C989        O997   1.268       .  A
C990       C1012   1.462       .  S
C990        O995   1.268       .  A
C990        O993   1.269       .  A
Cd991       O998   2.447       .  S
Cd991       O997   2.391       .  S
Cd991       O996   2.455       .  S
Cd991       O992   2.488       .  S
Cd991       O995   2.441       .  S
Cd991       O993   2.443       .  S
C994        O998   1.262       .  A
C999       C1188   1.419       .  A
C999       C1004   1.420       .  A
C1000      C1751   1.421       .  A
C1000      C1001   1.407       .  A
C1000      H1005   1.080       .  S
C1001      C1754   1.379       .  A
C1001      C1016   1.459       .  S
C1002      C1189   1.380       .  A
C1002      C1003   1.376       .  A
C1002      H1006   1.085       .  S
C1003      C1004   1.404       .  A
C1004      H1007   1.078       .  S
O1008     Cd1013   2.415       .  S
C1009      O1018   1.265       .  A
C1009      O1014   1.268       .  A
C1011      O1019   1.268       .  A
C1012      O1017   1.269       .  A
C1012      O1015   1.269       .  A
Cd1013     O1020   2.430       .  S
Cd1013     O1018   2.453       .  S
Cd1013     O1014   2.488       .  S
C1016      O1020   1.263       .  A
O1021      C1024   1.266       .  A
O1021     Cd1026   2.466   1_655  S
C1022      O1031   1.268       .  A
O1023      C1029   1.269       .  A
C1024      C1047   1.465       .  S
C1024      O1032   1.266       .  A
C1025      C1036   1.462       .  S
C1025      O1028   1.262   1_455  A
Cd1026     O1032   2.460   1_455  S
Cd1026     O1027   2.408   1_455  S
Cd1026     O1028   2.431   1_455  S
C1029      C1044   1.471       .  S
C1029      O1033   1.269       .  A
C1034      C1223   1.419       .  A
C1034      C1039   1.421       .  A
C1035      C1786   1.422   1_554  A
C1035      C1036   1.409       .  A
C1035      H1040   1.080   1_455  S
C1036      C1789   1.380   1_554  A
C1037      C1224   1.382       .  A
C1037      C1038   1.374       .  A
C1037      H1041   1.086       .  S
C1038      C1039   1.405       .  A
C1039      H1042   1.077       .  S
O1043      C1046   1.265       .  A
O1043     Cd1048   2.430       .  S
C1044      O1053   1.266       .  A
C1044      O1049   1.266       .  A
O1045      C1051   1.271       .  A
O1045     Cd1048   2.369       .  S
C1046      C1058   1.457       .  S
C1046      O1054   1.268       .  A
C1047      O1052   1.269       .  A
C1047      O1050   1.268       .  A
Cd1048     O1055   2.431       .  S
Cd1048     O1054   2.362       .  S
Cd1048     O1053   2.477       .  S
Cd1048     O1049   2.477       .  S
Cd1048     O1052   2.451       .  S
Cd1048     O1050   2.441       .  S
C1051      C1060   1.461       .  S
C1051      O1055   1.263       .  A
C1056      C1057   1.421       .  A
C1056      C1813   1.421   1_554  A
C1057      C1058   1.405       .  A
C1057      H1062   1.079       .  S
C1058      C1059   1.376       .  A
C1059      C1812   1.378   1_554  A
C1059      H1063   1.085       .  S
C1060      C1247   1.377       .  A
C1060      C1061   1.407       .  A
C1061      C1244   1.422       .  A
C1061      H1064   1.078       .  S
C1065      C1254   1.410       .  A
C1065      C1070   1.407       .  A
C1066      C1817   1.410   1_554  A
C1066      C1067   1.408       .  A
C1066      H1071   1.070       .  S
C1067      C1820   1.431   1_554  A
C1067      C1085   1.538       .  S
C1068      C1255   1.430       .  A
C1068      C1069   1.430       .  A
C1068      H1072   1.073       .  S
C1069      C1070   1.407       .  A
C1069      C1087   1.536       .  S
C1070      H1073   1.074       .  S
C1074      C1075   1.405       .  A
C1074      C1079   1.405       .  A
C1075      C1076   1.405       .  A
C1075      H1080   1.082       .  S
C1076      C1077   1.435       .  A
C1076      C1094   1.534       .  S
C1077      C1078   1.438       .  A
C1077      H1081   1.079       .  S
C1078      C1079   1.407       .  A
C1078      C1096   1.539       .  S
C1079      H1082   1.080       .  S
C1083      C1084   1.400       .  A
C1083      C1088   1.401       .  A
C1083      C1104   1.491       .  S
C1084      C1085   1.406       .  A
C1084      H1089   1.079       .  S
C1085      C1086   1.434       .  A
C1086      C1087   1.434       .  A
C1086      H1090   1.072       .  S
C1087      C1088   1.408       .  A
C1088      H1091   1.077       .  S
C1092      C1281   1.414       .  A
C1092      C1097   1.414       .  A
C1093      C1844   1.414   1_554  A
C1093      C1094   1.406       .  A
C1093      H1098   1.076   1_455  S
C1094      C1847   1.432   1_554  A
C1095      C1282   1.432       .  A
C1095      C1096   1.434       .  A
C1095      H1099   1.078       .  S
C1096      C1097   1.407       .  A
C1097      H1100   1.072       .  S
C1101      C1102   1.414       .  A
C1102      C1103   1.407       .  A
C1102      C1107   1.453       .  S
C1103      C1104   1.416       .  A
C1103      C1110   1.453       .  S
C1105      C1106   1.411       .  A
C1105      C1108   1.452       .  S
C1106      C1109   1.452       .  S
C1107      N1114   1.157       .  T
C1108      N1113   1.157       .  T
C1109      N1111   1.157       .  T
C1110      N1112   1.157       .  T
C1115      C1116   1.415       .  A
C1115      C1120   1.415       .  A
C1116      C1117   1.412   1_565  A
C1116      C1121   1.452       .  S
C1117      C1118   1.416       .  A
C1117      C1124   1.451       .  S
C1118      C1119   1.416       .  A
C1119      C1120   1.408   1_545  A
C1119      C1122   1.453       .  S
C1120      C1123   1.453       .  S
C1121      N1128   1.157       .  T
C1122      N1127   1.157       .  T
C1123      N1125   1.157       .  T
C1124      N1126   1.157       .  T
C1129      C1130   1.413       .  A
C1129      C1244   1.511       .  S
C1130      C1131   1.404       .  A
C1130      H1135   1.077       .  S
C1131      C1149   1.533       .  S
C1132      C1319   1.432       .  A
C1132      C1133   1.432       .  A
C1132      H1136   1.078       .  S
C1133      C1134   1.408       .  A
C1133      C1151   1.538       .  S
C1134      C1317   1.414       .  A
C1134      H1137   1.076       .  S
C1138      C1139   1.404       .  A
C1138      C1143   1.407       .  A
C1138      C1303   1.497       .  S
C1139      C1140   1.403       .  A
C1139      H1144   1.082       .  S
C1140      C1141   1.433       .  A
C1140      C1158   1.531       .  S
C1141      C1142   1.438       .  A
C1141      H1145   1.078       .  S
C1142      C1143   1.411       .  A
C1142      C1160   1.542       .  S
C1143      H1146   1.079       .  S
C1147      C1148   1.405       .  A
C1147      C1152   1.406       .  A
C1147      C1306   1.497       .  S
C1148      C1149   1.404       .  A
C1148      H1153   1.082       .  S
C1149      C1150   1.434       .  A
C1150      C1151   1.437       .  A
C1150      H1154   1.079       .  S
C1151      C1152   1.410       .  A
C1152      H1155   1.080       .  S
C1156      C1345   1.411       .  A
C1156      C1161   1.415       .  A
C1156      C1165   1.511       .  S
C1157      C1158   1.404       .  A
C1157      H1162   1.078       .  S
C1159      C1346   1.432       .  A
C1159      C1160   1.432       .  A
C1159      H1163   1.077       .  S
C1160      C1161   1.409       .  A
C1161      H1164   1.069       .  S
C1165      C1354   1.422       .  A
C1165      C1170   1.419       .  A
C1166      C1167   1.407       .  A
C1166      H1171   1.082       .  S
C1167      C1182   1.459       .  S
C1168      C1355   1.382       .  A
C1168      C1169   1.372       .  A
C1168      H1172   1.085       .  S
C1169      C1170   1.402       .  A
C1169      C1177   1.453       .  S
C1170      H1173   1.077       .  S
O1174      C1177   1.264       .  A
O1174     Cd1179   2.408       .  S
C1175      C1197   1.467       .  S
C1175      O1184   1.265       .  A
C1175      O1180   1.267       .  A
O1176      C1182   1.270       .  A
O1176     Cd1179   2.337       .  S
C1177      O1185   1.268       .  A
C1178      C1200   1.459       .  S
C1178      O1183   1.268       .  A
C1178      O1181   1.268       .  A
Cd1179     O1186   2.434       .  S
Cd1179     O1185   2.388       .  S
Cd1179     O1184   2.457       .  S
Cd1179     O1180   2.476       .  S
Cd1179     O1183   2.434       .  S
Cd1179     O1181   2.435       .  S
C1182      O1186   1.263       .  A
C1187      C1376   1.422       .  A
C1187      C1192   1.420       .  A
C1188      C1189   1.407       .  A
C1188      H1193   1.081       .  S
C1189      C1204   1.459       .  S
C1190      C1377   1.378       .  A
C1190      C1191   1.376       .  A
C1190      H1194   1.085       .  S
C1191      C1192   1.405       .  A
C1192      H1195   1.079       .  S
O1196     Cd1201   2.424       .  S
C1197      O1206   1.266       .  A
C1197      O1202   1.266       .  A
C1199      O1207   1.268       .  A
C1200      O1205   1.269       .  A
C1200      O1203   1.269       .  A
Cd1201     O1208   2.427       .  S
Cd1201     O1206   2.457       .  S
Cd1201     O1202   2.472       .  S
C1204      O1208   1.263       .  A
O1209      C1212   1.266       .  A
O1209     Cd1214   2.455       .  S
C1210      O1219   1.267       .  A
O1211      C1217   1.269       .  A
C1212      C1235   1.462       .  S
C1212      O1220   1.266       .  A
C1213      C1224   1.461       .  S
C1213      O1216   1.261   1_455  A
Cd1214     O1220   2.449       .  S
Cd1214     O1215   2.408       .  S
Cd1214     O1216   2.436       .  S
C1217      C1232   1.467       .  S
C1217      O1221   1.269       .  A
C1222      C1411   1.422       .  A
C1222      C1227   1.419       .  A
C1223      C1224   1.408       .  A
C1223      H1228   1.082   1_455  S
C1225      C1412   1.379       .  A
C1225      C1226   1.376       .  A
C1225      H1229   1.085       .  S
C1226      C1227   1.405       .  A
C1227      H1230   1.079       .  S
O1231      C1234   1.265       .  A
O1231     Cd1236   2.431       .  S
C1232      O1241   1.266       .  A
C1232      O1237   1.266       .  A
O1233      C1239   1.271       .  A
O1233     Cd1236   2.342       .  S
C1234      C1246   1.456       .  S
C1234      O1242   1.267       .  A
C1235      O1240   1.269       .  A
C1235      O1238   1.268       .  A
Cd1236     O1243   2.439       .  S
Cd1236     O1242   2.348       .  S
Cd1236     O1241   2.461       .  S
Cd1236     O1237   2.467       .  S
Cd1236     O1240   2.449       .  S
Cd1236     O1238   2.438       .  S
C1239      C1248   1.460       .  S
C1239      O1243   1.263       .  A
C1244      C1245   1.418       .  A
C1245      C1246   1.404       .  A
C1245      H1250   1.081       .  S
C1246      C1247   1.379       .  A
C1247      H1251   1.085       .  S
C1248      C1435   1.380       .  A
C1248      C1249   1.407       .  A
C1249      C1432   1.420       .  A
C1249      H1252   1.081       .  S
C1253      C1442   1.411       .  A
C1253      C1258   1.409       .  A
C1254      C1255   1.408       .  A
C1254      H1259   1.073       .  S
C1255      C1273   1.537       .  S
C1256      C1443   1.431       .  A
C1256      C1257   1.428       .  A
C1256      H1260   1.072       .  S
C1257      C1258   1.407       .  A
C1257      C1275   1.537       .  S
C1258      H1261   1.072       .  S
C1262      C1263   1.405       .  A
C1262      C1267   1.406       .  A
C1263      C1264   1.405       .  A
C1263      H1268   1.082       .  S
C1264      C1265   1.436       .  A
C1264      C1282   1.535       .  S
C1265      C1266   1.438       .  A
C1265      H1269   1.078       .  S
C1266      C1267   1.408       .  A
C1266      C1284   1.542       .  S
C1267      H1270   1.079       .  S
C1271      C1272   1.402       .  A
C1271      C1276   1.403       .  A
C1271      C1292   1.494       .  S
C1272      C1273   1.406       .  A
C1272      H1277   1.079       .  S
C1273      C1274   1.433       .  A
C1274      C1275   1.434       .  A
C1274      H1278   1.073       .  S
C1275      C1276   1.409       .  A
C1276      H1279   1.078       .  S
C1280      C1469   1.413       .  A
C1280      C1285   1.416       .  A
C1281      C1282   1.406       .  A
C1281      H1286   1.076   1_455  S
C1283      C1470   1.431       .  A
C1283      C1284   1.433       .  A
C1283      H1287   1.078       .  S
C1284      C1285   1.409       .  A
C1285      H1288   1.070       .  S
C1289      C1290   1.415       .  A
C1290      C1291   1.408       .  A
C1290      C1295   1.453       .  S
C1291      C1292   1.416       .  A
C1291      C1298   1.453       .  S
C1293      C1294   1.412       .  A
C1293      C1296   1.452       .  S
C1294      C1297   1.452       .  S
C1295      N1302   1.157       .  T
C1296      N1301   1.157       .  T
C1297      N1299   1.157       .  T
C1298      N1300   1.157       .  T
C1303      C1304   1.416       .  A
C1303      C1308   1.416       .  A
C1304      C1305   1.415   1_565  A
C1304      C1309   1.451       .  S
C1305      C1306   1.416       .  A
C1305      C1312   1.451       .  S
C1306      C1307   1.416       .  A
C1307      C1308   1.408   1_545  A
C1307      C1310   1.453       .  S
C1308      C1311   1.453       .  S
C1309      N1316   1.157       .  T
C1310      N1315   1.157       .  T
C1311      N1313   1.157       .  T
C1312      N1314   1.157       .  T
C1317      C1318   1.412       .  A
C1317      C1432   1.511       .  S
C1318      C1319   1.404       .  A
C1318      H1323   1.071       .  S
C1319      C1337   1.534       .  S
C1320      C1507   1.432       .  A
C1320      C1321   1.432       .  A
C1320      H1324   1.078       .  S
C1321      C1322   1.407       .  A
C1321      C1339   1.537       .  S
C1322      C1505   1.413       .  A
C1322      H1325   1.073       .  S
C1326      C1327   1.403       .  A
C1326      C1331   1.405       .  A
C1326      C1491   1.494       .  S
C1327      C1328   1.403       .  A
C1327      H1332   1.082       .  S
C1328      C1329   1.433       .  A
C1328      C1346   1.532       .  S
C1329      C1330   1.437       .  A
C1329      H1333   1.078       .  S
C1330      C1331   1.408       .  A
C1330      C1348   1.538       .  S
C1331      H1334   1.080       .  S
C1335      C1336   1.404       .  A
C1335      C1340   1.405       .  A
C1335      C1494   1.494       .  S
C1336      C1337   1.403       .  A
C1336      H1341   1.082       .  S
C1337      C1338   1.435       .  A
C1338      C1339   1.436       .  A
C1338      H1342   1.078       .  S
C1339      C1340   1.407       .  A
C1340      H1343   1.080       .  S
C1344      C1533   1.412       .  A
C1344      C1349   1.412       .  A
C1344      C1353   1.509       .  S
C1345      C1346   1.405       .  A
C1345      H1350   1.078       .  S
C1347      C1534   1.432       .  A
C1347      C1348   1.432       .  A
C1347      H1351   1.078       .  S
C1348      C1349   1.407       .  A
C1349      H1352   1.069       .  S
C1353      C1542   1.419       .  A
C1353      C1358   1.420       .  A
C1354      C1355   1.409       .  A
C1354      H1359   1.082       .  S
C1355      C1370   1.462       .  S
C1356      C1543   1.383       .  A
C1356      C1357   1.373       .  A
C1356      H1360   1.086       .  S
C1357      C1358   1.403       .  A
C1357      C1365   1.454       .  S
C1358      H1361   1.077       .  S
O1362      C1365   1.266       .  A
O1362     Cd1367   2.410       .  S
C1363      C1385   1.471       .  S
C1363      O1372   1.265       .  A
C1363      O1368   1.268       .  A
O1364      C1370   1.271       .  A
O1364     Cd1367   2.330       .  S
C1365      O1373   1.267       .  A
C1366      C1388   1.464       .  S
C1366      O1371   1.269       .  A
C1366      O1369   1.269       .  A
Cd1367     O1374   2.455       .  S
Cd1367     O1373   2.403       .  S
Cd1367     O1372   2.452       .  S
Cd1367     O1368   2.498       .  S
Cd1367     O1371   2.446       .  S
Cd1367     O1369   2.447       .  S
C1370      O1374   1.262       .  A
C1375      C1564   1.420       .  A
C1375      C1380   1.419       .  A
C1376      C1377   1.407       .  A
C1376      H1381   1.079       .  S
C1377      C1392   1.460       .  S
C1378      C1565   1.381       .  A
C1378      C1379   1.376       .  A
C1378      H1382   1.085       .  S
C1379      C1380   1.404       .  A
C1380      H1383   1.078       .  S
O1384     Cd1389   2.411       .  S
C1385      O1394   1.265       .  A
C1385      O1390   1.268       .  A
C1387      O1395   1.268       .  A
C1388      O1393   1.269       .  A
C1388      O1391   1.269       .  A
Cd1389     O1396   2.434       .  S
Cd1389     O1394   2.450       .  S
Cd1389     O1390   2.495       .  S
C1392      O1396   1.262       .  A
O1397      C1400   1.266       .  A
O1397     Cd1402   2.468   1_655  S
C1398      O1407   1.268       .  A
O1399      C1405   1.270       .  A
C1400      C1423   1.465       .  S
C1400      O1408   1.266       .  A
C1401      C1412   1.461       .  S
C1401      O1404   1.262   1_455  A
Cd1402     O1408   2.459   1_455  S
Cd1402     O1403   2.408   1_455  S
Cd1402     O1404   2.428   1_455  S
C1405      C1420   1.471       .  S
C1405      O1409   1.269       .  A
C1410      C1599   1.420       .  A
C1410      C1415   1.420       .  A
C1411      C1412   1.409       .  A
C1411      H1416   1.079       .  S
C1413      C1600   1.382       .  A
C1413      C1414   1.374       .  A
C1413      H1417   1.086       .  S
C1414      C1415   1.405       .  A
C1415      H1418   1.077       .  S
O1419      C1422   1.265       .  A
O1419     Cd1424   2.426       .  S
C1420      O1429   1.266       .  A
C1420      O1425   1.266       .  A
O1421      C1427   1.271       .  A
O1421     Cd1424   2.364       .  S
C1422      C1434   1.456       .  S
C1422      O1430   1.268       .  A
C1423      O1428   1.269       .  A
C1423      O1426   1.268       .  A
Cd1424     O1431   2.434       .  S
Cd1424     O1430   2.371       .  S
Cd1424     O1429   2.477       .  S
Cd1424     O1425   2.479       .  S
Cd1424     O1428   2.453       .  S
Cd1424     O1426   2.441       .  S
C1427      C1436   1.461       .  S
C1427      O1431   1.263       .  A
C1432      C1433   1.421       .  A
C1433      C1434   1.404       .  A
C1433      H1438   1.078       .  S
C1434      C1435   1.375       .  A
C1435      H1439   1.085       .  S
C1436      C1623   1.377       .  A
C1436      C1437   1.408       .  A
C1437      C1620   1.422       .  A
C1437      H1440   1.079       .  S
C1441      C1630   1.410       .  A
C1441      C1446   1.408       .  A
C1442      C1443   1.410       .  A
C1442      H1447   1.070       .  S
C1443      C1461   1.540       .  S
C1444      C1631   1.430       .  A
C1444      C1445   1.430       .  A
C1444      H1448   1.073       .  S
C1445      C1446   1.407       .  A
C1445      C1463   1.536       .  S
C1446      H1449   1.074       .  S
C1450      C1451   1.405       .  A
C1450      C1455   1.405       .  A
C1451      C1452   1.406       .  A
C1451      H1456   1.082       .  S
C1452      C1453   1.435       .  A
C1452      C1470   1.533       .  S
C1453      C1454   1.436       .  A
C1453      H1457   1.079       .  S
C1454      C1455   1.406       .  A
C1454      C1472   1.534       .  S
C1455      H1458   1.081       .  S
C1459      C1460   1.401       .  A
C1459      C1464   1.401       .  A
C1459      C1480   1.492       .  S
C1460      C1461   1.407       .  A
C1460      H1465   1.078       .  S
C1461      C1462   1.434       .  A
C1462      C1463   1.434       .  A
C1462      H1466   1.072       .  S
C1463      C1464   1.407       .  A
C1464      H1467   1.078       .  S
C1468      C1657   1.414       .  A
C1468      C1473   1.414       .  A
C1469      C1470   1.406       .  A
C1469      H1474   1.077   1_455  S
C1471      C1658   1.432       .  A
C1471      C1472   1.432       .  A
C1471      H1475   1.079       .  S
C1472      C1473   1.406       .  A
C1473      H1476   1.075   1_455  S
C1477      C1478   1.414       .  A
C1478      C1479   1.407       .  A
C1478      C1483   1.453       .  S
C1479      C1480   1.416       .  A
C1479      C1486   1.453       .  S
C1481      C1482   1.412       .  A
C1481      C1484   1.452       .  S
C1482      C1485   1.452       .  S
C1483      N1490   1.157       .  T
C1484      N1489   1.157       .  T
C1485      N1487   1.157       .  T
C1486      N1488   1.157       .  T
C1491      C1492   1.415       .  A
C1491      C1496   1.415       .  A
C1492      C1493   1.414   1_565  A
C1492      C1497   1.451       .  S
C1493      C1494   1.416       .  A
C1493      C1500   1.451       .  S
C1494      C1495   1.415       .  A
C1495      C1496   1.407   1_545  A
C1495      C1498   1.453       .  S
C1496      C1499   1.453       .  S
C1497      N1504   1.157       .  T
C1498      N1503   1.157       .  T
C1499      N1501   1.157       .  T
C1500      N1502   1.157       .  T
C1505      C1506   1.414       .  A
C1505      C1620   1.512       .  S
C1506      C1507   1.405       .  A
C1506      H1511   1.075       .  S
C1507      C1525   1.534       .  S
C1508      C1695   1.431       .  A
C1508      C1509   1.434       .  A
C1508      H1512   1.077       .  S
C1509      C1510   1.408       .  A
C1509      C1527   1.540       .  S
C1510      C1693   1.414       .  A
C1510      H1513   1.072       .  S
C1514      C1515   1.402       .  A
C1514      C1519   1.405       .  A
C1514      C1679   1.494       .  S
C1515      C1516   1.402       .  A
C1515      H1520   1.082       .  S
C1516      C1517   1.434       .  A
C1516      C1534   1.533       .  S
C1517      C1518   1.440       .  A
C1517      H1521   1.076       .  S
C1518      C1519   1.410       .  A
C1518      C1536   1.544       .  S
C1519      H1522   1.078       .  S
C1523      C1524   1.403       .  A
C1523      C1528   1.405       .  A
C1523      C1682   1.494       .  S
C1524      C1525   1.403       .  A
C1524      H1529   1.082       .  S
C1525      C1526   1.435       .  A
C1526      C1527   1.438       .  A
C1526      H1530   1.078       .  S
C1527      C1528   1.408       .  A
C1528      H1531   1.079       .  S
C1532      C1721   1.410       .  A
C1532      C1537   1.413       .  A
C1532      C1541   1.509       .  S
C1533      C1534   1.405       .  A
C1533      H1538   1.078       .  S
C1535      C1722   1.431       .  A
C1535      C1536   1.434       .  A
C1535      H1539   1.077       .  S
C1536      C1537   1.409       .  A
C1537      H1540   1.068       .  S
C1541      C1730   1.420       .  A
C1541      C1546   1.419       .  A
C1542      C1543   1.407       .  A
C1542      H1547   1.082       .  S
C1543      C1558   1.460       .  S
C1544      C1731   1.382       .  A
C1544      C1545   1.372       .  A
C1544      H1548   1.085       .  S
C1545      C1546   1.401       .  A
C1545      C1553   1.454       .  S
C1546      H1549   1.077       .  S
O1550      C1553   1.264       .  A
O1550     Cd1555   2.410       .  S
C1551      C1573   1.468       .  S
C1551      O1560   1.265       .  A
C1551      O1556   1.267       .  A
O1552      C1558   1.270       .  A
O1552     Cd1555   2.337       .  S
C1553      O1561   1.268       .  A
C1554      C1576   1.459       .  S
C1554      O1559   1.268       .  A
C1554      O1557   1.268       .  A
Cd1555     O1562   2.437       .  S
Cd1555     O1561   2.387       .  S
Cd1555     O1560   2.456       .  S
Cd1555     O1556   2.478       .  S
Cd1555     O1559   2.433       .  S
Cd1555     O1557   2.437       .  S
C1558      O1562   1.263       .  A
C1563      C1752   1.421       .  A
C1563      C1568   1.420       .  A
C1564      C1565   1.407       .  A
C1564      H1569   1.081       .  S
C1565      C1580   1.459       .  S
C1566      C1753   1.379       .  A
C1566      C1567   1.376       .  A
C1566      H1570   1.085       .  S
C1567      C1568   1.405       .  A
C1568      H1571   1.079       .  S
O1572     Cd1577   2.421       .  S
C1573      O1582   1.266       .  A
C1573      O1578   1.267       .  A
C1575      O1583   1.269       .  A
C1576      O1581   1.269       .  A
C1576      O1579   1.269       .  A
Cd1577     O1584   2.430       .  S
Cd1577     O1582   2.455       .  S
Cd1577     O1578   2.478       .  S
C1580      O1584   1.263       .  A
O1585      C1588   1.266       .  A
O1585     Cd1590   2.457   1_655  S
C1586      O1595   1.267       .  A
O1587      C1593   1.269       .  A
C1588      C1611   1.462       .  S
C1588      O1596   1.266       .  A
C1589      C1600   1.461       .  S
C1589      O1592   1.261   1_455  A
Cd1590     O1596   2.453   1_455  S
Cd1590     O1591   2.407   1_455  S
Cd1590     O1592   2.436   1_455  S
C1593      C1608   1.468       .  S
C1593      O1597   1.269       .  A
C1598      C1787   1.421       .  A
C1598      C1603   1.420       .  A
C1599      C1600   1.409       .  A
C1599      H1604   1.082   1_455  S
C1601      C1788   1.380       .  A
C1601      C1602   1.375       .  A
C1601      H1605   1.085       .  S
C1602      C1603   1.405       .  A
C1603      H1606   1.078       .  S
O1607      C1610   1.265       .  A
O1607     Cd1612   2.430       .  S
C1608      O1617   1.266       .  A
C1608      O1613   1.266       .  A
O1609      C1615   1.271       .  A
O1609     Cd1612   2.356       .  S
C1610      C1622   1.456       .  S
C1610      O1618   1.268       .  A
C1611      O1616   1.269       .  A
C1611      O1614   1.268       .  A
Cd1612     O1619   2.432       .  S
Cd1612     O1618   2.351       .  S
Cd1612     O1617   2.467       .  S
Cd1612     O1613   2.470       .  S
Cd1612     O1616   2.446       .  S
Cd1612     O1614   2.438       .  S
C1615      C1624   1.460       .  S
C1615      O1619   1.263       .  A
C1620      C1621   1.419       .  A
C1621      C1622   1.404       .  A
C1621      H1626   1.080       .  S
C1622      C1623   1.378       .  A
C1623      H1627   1.085       .  S
C1624      C1811   1.378       .  A
C1624      C1625   1.407       .  A
C1625      C1808   1.421       .  A
C1625      H1628   1.079       .  S
C1629      C1818   1.410       .  A
C1629      C1634   1.408       .  A
C1630      C1631   1.408       .  A
C1630      H1635   1.072       .  S
C1631      C1649   1.536       .  S
C1632      C1819   1.431       .  A
C1632      C1633   1.430       .  A
C1632      H1636   1.072       .  S
C1633      C1634   1.407       .  A
C1633      C1651   1.537       .  S
C1634      H1637   1.074       .  S
C1638      C1639   1.404       .  A
C1638      C1643   1.405       .  A
C1639      C1640   1.405       .  A
C1639      H1644   1.082       .  S
C1640      C1641   1.436       .  A
C1640      C1658   1.535       .  S
C1641      C1642   1.438       .  A
C1641      H1645   1.078       .  S
C1642      C1643   1.408       .  A
C1642      C1660   1.542       .  S
C1643      H1646   1.079       .  S
C1647      C1648   1.401       .  A
C1647      C1652   1.402       .  A
C1647      C1668   1.493       .  S
C1648      C1649   1.406       .  A
C1648      H1653   1.079       .  S
C1649      C1650   1.433       .  A
C1650      C1651   1.434       .  A
C1650      H1654   1.073       .  S
C1651      C1652   1.409       .  A
C1652      H1655   1.077       .  S
C1656      C1845   1.413       .  A
C1656      C1661   1.415       .  A
C1657      C1658   1.406       .  A
C1657      H1662   1.073       .  S
C1659      C1846   1.431       .  A
C1659      C1660   1.433       .  A
C1659      H1663   1.078       .  S
C1660      C1661   1.409       .  A
C1661      H1664   1.070       .  S
C1665      C1666   1.414       .  A
C1666      C1667   1.407       .  A
C1666      C1671   1.453       .  S
C1667      C1668   1.416       .  A
C1667      C1674   1.453       .  S
C1669      C1670   1.411       .  A
C1669      C1672   1.452       .  S
C1670      C1673   1.452       .  S
C1671      N1678   1.157       .  T
C1672      N1677   1.157       .  T
C1673      N1675   1.157       .  T
C1674      N1676   1.157       .  T
C1679      C1680   1.415       .  A
C1679      C1684   1.415       .  A
C1680      C1681   1.413   1_565  A
C1680      C1685   1.451       .  S
C1681      C1682   1.416       .  A
C1681      C1688   1.451       .  S
C1682      C1683   1.416       .  A
C1683      C1684   1.408   1_545  A
C1683      C1686   1.453       .  S
C1684      C1687   1.453       .  S
C1685      N1692   1.157       .  T
C1686      N1691   1.157       .  T
C1687      N1689   1.157       .  T
C1688      N1690   1.157       .  T
C1693      C1694   1.413       .  A
C1693      C1808   1.511       .  S
C1694      C1695   1.403       .  A
C1694      H1699   1.075       .  S
C1695      C1713   1.533       .  S
C1696      C1697   1.432   1_554  A
C1696      H1700   1.078       .  S
C1697      C1698   1.408       .  A
C1697      C1715   1.537       .  S
C1698      H1701   1.075       .  S
C1702      C1703   1.404       .  A
C1702      C1707   1.407       .  A
C1702      C1867   1.497       .  S
C1703      C1704   1.403       .  A
C1703      H1708   1.082       .  S
C1704      C1705   1.432       .  A
C1704      C1722   1.531       .  S
C1705      C1706   1.436       .  A
C1705      H1709   1.078       .  S
C1706      C1707   1.410       .  A
C1706      C1724   1.538       .  S
C1707      H1710   1.080       .  S
C1711      C1712   1.405       .  A
C1711      C1716   1.407       .  A
C1711      C1870   1.497       .  S
C1712      C1713   1.403       .  A
C1712      H1717   1.082       .  S
C1713      C1714   1.434       .  A
C1714      C1715   1.436       .  A
C1714      H1718   1.079       .  S
C1715      C1716   1.409       .  A
C1716      H1719   1.080       .  S
C1720      C1725   1.413       .  A
C1720      C1729   1.510       .  S
C1721      C1722   1.404       .  A
C1721      H1726   1.079       .  S
C1723      C1724   1.431       .  A
C1723      H1727   1.078       .  S
C1724      C1725   1.407       .  A
C1725      H1728   1.070       .  S
C1729      C1734   1.420       .  A
C1730      C1731   1.408       .  A
C1730      H1735   1.082       .  S
C1731      C1746   1.460       .  S
C1732      C1733   1.373   1_554  A
C1732      H1736   1.086       .  S
C1733      C1734   1.403       .  A
C1733      C1741   1.453       .  S
C1734      H1737   1.077       .  S
O1738      C1741   1.266       .  A
O1738     Cd1743   2.408       .  S
C1739      C1761   1.469       .  S
C1739      O1748   1.265       .  A
C1739      O1744   1.268       .  A
O1740      C1746   1.271       .  A
O1740     Cd1743   2.327       .  S
C1741      O1749   1.267       .  A
C1742      C1764   1.462       .  S
C1742      O1747   1.268       .  A
C1742      O1745   1.269       .  A
Cd1743     O1750   2.447       .  S
Cd1743     O1749   2.402       .  S
Cd1743     O1748   2.451       .  S
Cd1743     O1744   2.490       .  S
Cd1743     O1747   2.441       .  S
Cd1743     O1745   2.442       .  S
C1746      O1750   1.262       .  A
C1751      C1756   1.419   1_554  A
C1752      C1753   1.407       .  A
C1752      H1757   1.080       .  S
C1753      C1768   1.460       .  S
C1754      C1755   1.376   1_554  A
C1754      H1758   1.085       .  S
C1755      C1756   1.404       .  A
C1756      H1759   1.079       .  S
O1760     Cd1765   2.417       .  S
C1761      O1770   1.266       .  A
C1761      O1766   1.267       .  A
C1763      O1771   1.267       .  A
C1764      O1769   1.269       .  A
C1764      O1767   1.269       .  A
Cd1765     O1772   2.432       .  S
Cd1765     O1770   2.453       .  S
Cd1765     O1766   2.485       .  S
C1768      O1772   1.262       .  A
O1773      C1776   1.266       .  A
O1773     Cd1778   2.459   1_655  S
C1774      O1783   1.267       .  A
O1775      C1781   1.269       .  A
C1776      C1799   1.463       .  S
C1776      O1784   1.266       .  A
C1777      C1788   1.461       .  S
C1777      O1780   1.262   1_455  A
Cd1778     O1784   2.453   1_455  S
Cd1778     O1779   2.405   1_455  S
Cd1778     O1780   2.432   1_455  S
C1781      C1796   1.468       .  S
C1781      O1785   1.269       .  A
C1786      C1791   1.419       .  A
C1787      C1788   1.409       .  A
C1787      H1792   1.080   1_455  S
C1789      C1790   1.376       .  A
C1789      H1793   1.085   1_556  S
C1790      C1791   1.404       .  A
C1791      H1794   1.078       .  S
O1795      C1798   1.265       .  A
O1795     Cd1800   2.429       .  S
C1796      O1805   1.266       .  A
C1796      O1801   1.266       .  A
O1797      C1803   1.271       .  A
O1797     Cd1800   2.352       .  S
C1798      C1810   1.456       .  S
C1798      O1806   1.268       .  A
C1799      O1804   1.269       .  A
C1799      O1802   1.268       .  A
Cd1800     O1807   2.436       .  S
Cd1800     O1806   2.354       .  S
Cd1800     O1805   2.469       .  S
Cd1800     O1801   2.468       .  S
Cd1800     O1804   2.450       .  S
Cd1800     O1802   2.439       .  S
C1803      C1812   1.461       .  S
C1803      O1807   1.263       .  A
C1808      C1809   1.419       .  A
C1809      C1810   1.405       .  A
C1809      H1814   1.080       .  S
C1810      C1811   1.377       .  A
C1811      H1815   1.085       .  S
C1812      C1813   1.407       .  A
C1813      H1816   1.080       .  S
C1817      C1822   1.409       .  A
C1818      C1819   1.409       .  A
C1818      H1823   1.072       .  S
C1819      C1837   1.538       .  S
C1820      C1821   1.429       .  A
C1820      H1824   1.072       .  S
C1821      C1822   1.407       .  A
C1821      C1839   1.536       .  S
C1822      H1825   1.073       .  S
C1826      C1827   1.405       .  A
C1826      C1831   1.406       .  A
C1827      C1828   1.405       .  A
C1827      H1832   1.082       .  S
C1828      C1829   1.435       .  A
C1828      C1846   1.533       .  S
C1829      C1830   1.437       .  A
C1829      H1833   1.079       .  S
C1830      C1831   1.407       .  A
C1830      C1848   1.537       .  S
C1831      H1834   1.080       .  S
C1835      C1836   1.401       .  A
C1835      C1840   1.402       .  A
C1835      C1856   1.494       .  S
C1836      C1837   1.407       .  A
C1836      H1841   1.079       .  S
C1837      C1838   1.433       .  A
C1838      C1839   1.434       .  A
C1838      H1842   1.073       .  S
C1839      C1840   1.408       .  A
C1840      H1843   1.078       .  S
C1844      C1849   1.415       .  A
C1845      C1846   1.405       .  A
C1845      H1850   1.077   1_455  S
C1847      C1848   1.432       .  A
C1847      H1851   1.079   1_556  S
C1848      C1849   1.407       .  A
C1849      H1852   1.072       .  S
C1853      C1854   1.414       .  A
C1854      C1855   1.408       .  A
C1854      C1859   1.453       .  S
C1855      C1856   1.417       .  A
C1855      C1862   1.453       .  S
C1857      C1858   1.412       .  A
C1857      C1860   1.452       .  S
C1858      C1861   1.452       .  S
C1859      N1866   1.157       .  T
C1860      N1865   1.157       .  T
C1861      N1863   1.157       .  T
C1862      N1864   1.157       .  T
C1867      C1868   1.416       .  A
C1867      C1872   1.416       .  A
C1868      C1869   1.415   1_565  A
C1868      C1873   1.451       .  S
C1869      C1870   1.416       .  A
C1869      C1876   1.451       .  S
C1870      C1871   1.416       .  A
C1871      C1872   1.408   1_545  A
C1871      C1874   1.453       .  S
C1872      C1875   1.453       .  S
C1873      N1880   1.157       .  T
C1874      N1879   1.157       .  T
C1875      N1877   1.157       .  T
C1876      N1878   1.157       .  T
