geometry optimzed in LAMMPS
_audit_creation_date              2020-11-30 
_audit_creation_method            'lammps2cif' 
_symmetry_space_group_name_H-M    'P1' 
_symmetry_Int_Tables_number       1 
_symmetry_cell_setting            triclinic 
loop_ 
_symmetry_equiv_pos_as_xyz 
  x,y,z 
_cell_length_a                    53.25899265138537 
_cell_length_b                    53.08524330301231 
_cell_length_c                    32.4474634781681 
_cell_angle_alpha                 89.96691219003215 
_cell_angle_beta                  90.06316400135744 
_cell_angle_gamma                 90.00737624830037 
loop_ 
_atom_site_label 
_atom_site_type_symbol 
_atom_site_fract_x 
_atom_site_fract_y 
_atom_site_fract_z 
_atom_site_charge 
N1          N  0.33628680  0.04492467  0.55579381    -0.26750
N2          N  0.31524047  0.03562208  0.57120428    -0.34610
C3          C  0.30746985  0.01642399  0.54733585     0.01590
C4          C  0.32474419  0.01331127  0.51608484     0.07610
C5          C  0.34280812  0.03150972  0.52237954    -0.05490
H6          H  0.29083965  0.00520953  0.55292388     0.08280
H7          H  0.35923935  0.03505255  0.50365514     0.09480
Cu8        Cu  0.29876248  0.04845171  0.62508961     0.44170
Cu9        Cu  0.35467497  0.07621946  0.57892426     0.41990
Cu10       Cu  0.32672213  0.10450573  0.66846006     0.43880
N11         N  0.28628935  0.06539152  0.67882814    -0.34140
N12         N  0.29581846  0.08661056  0.69336049    -0.28390
C13         C  0.28272730  0.09373213  0.72674164    -0.04490
C14         C  0.26447498  0.07586030  0.73395648     0.07720
C15         C  0.26721828  0.05808536  0.70323903     0.01520
H16         H  0.28642862  0.11050127  0.74466150     0.09170
H17         H  0.25578521  0.04151384  0.69828216     0.08250
N18         N  0.35833108  0.11864092  0.63976592    -0.35590
N19         N  0.36842170  0.10857525  0.60641773    -0.27770
C20         C  0.38835069  0.12247511  0.59495459    -0.03010
C21         C  0.39094329  0.14200903  0.62275634     0.05600
C22         C  0.37169357  0.13901871  0.65077910     0.03690
H23         H  0.40020036  0.11850433  0.56868396     0.08800
H24         H  0.36762912  0.15083604  0.67707697     0.07630
O25         O  0.47647744  0.22863874  0.65716961    -0.72410
O26         O  0.53077363  0.28069736  0.65481654    -0.73390
O27         O  0.47761562  0.28197500  0.65518730    -0.62010
O28         O  0.53010070  0.22702311  0.65565741    -0.70420
O29         O  0.53037600  0.22772649  0.58724862    -0.69970
O30         O  0.47624773  0.28002343  0.58744251    -0.61220
O31         O  0.52977674  0.28103223  0.58657825    -0.73730
O32         O  0.47692593  0.22681964  0.58907285    -0.72510
Cu33       Cu  0.50377819  0.25455526  0.65808069     1.04560
Cu34       Cu  0.50331194  0.25385809  0.58524006     1.04330
C35         C  0.46792535  0.21950320  0.62360026     0.93790
C36         C  0.53876189  0.28934630  0.62052769     0.92930
C37         C  0.46827014  0.28958800  0.62105387     0.85080
C38         C  0.53883750  0.21913957  0.62127405     0.91350
N39         N  0.67107823  0.04733584  0.54516141    -0.26750
N40         N  0.69248780  0.03805096  0.55924150    -0.34610
C41         C  0.69984259  0.01904099  0.53463567     0.01590
C42         C  0.68195201  0.01601945  0.50421773     0.07610
C43         C  0.66392637  0.03409169  0.51184028    -0.05490
H44         H  0.71658726  0.00783352  0.53923727     0.08280
H45         H  0.64705581  0.03760766  0.49415468     0.09480
Cu46       Cu  0.70990473  0.05065389  0.61257810     0.44170
Cu47       Cu  0.65315309  0.07841942  0.57026994     0.41990
Cu48       Cu  0.68436958  0.10805171  0.65611041     0.43880
N49         N  0.72327619  0.06721350  0.66615324    -0.34140
N50         N  0.71470815  0.08883015  0.68072583    -0.28390
C51         C  0.72821493  0.09535447  0.71406218    -0.04490
C52         C  0.74573172  0.07671681  0.72118481     0.07720
C53         C  0.74210272  0.05909124  0.69046726     0.01520
H54         H  0.72528115  0.11224698  0.73204465     0.09170
H55         H  0.75278832  0.04203542  0.68544562     0.08250
N56         N  0.65223181  0.12239724  0.62886010    -0.35590
N57         N  0.64052845  0.11130908  0.59781675    -0.27770
C58         C  0.61991086  0.12471641  0.58816907    -0.03010
C59         C  0.61875211  0.14522915  0.61428225     0.05600
C60         C  0.63943592  0.14319770  0.63975321     0.03690
H61         H  0.60662906  0.11976267  0.56427165     0.08800
H62         H  0.64450835  0.15558317  0.66486630     0.07630
N63         N  0.33732035  0.46525810  0.54957422    -0.26750
N64         N  0.31476624  0.47299837  0.56097586    -0.34610
C65         C  0.30681349  0.49086824  0.53457825     0.01590
C66         C  0.32548624  0.49480495  0.50579371     0.07610
C67         C  0.34459354  0.47843428  0.51626345    -0.05490
H68         H  0.28911122  0.50078237  0.53694795     0.08280
H69         H  0.36230877  0.47597980  0.50044853     0.09480
Cu70       Cu  0.29662579  0.45984885  0.61322930     0.44170
Cu71       Cu  0.35635893  0.43578851  0.57766035     0.41990
Cu72       Cu  0.32022248  0.40054196  0.65216593     0.43880
N73         N  0.28278810  0.44238495  0.66566833    -0.34140
N74         N  0.29036572  0.41993146  0.67825328    -0.28390
C75         C  0.27688306  0.41313419  0.71146741    -0.04490
C76         C  0.26046187  0.43245608  0.72062733     0.07720
C77         C  0.26471484  0.45076702  0.69118773     0.01520
H78         H  0.27924025  0.39567854  0.72820584     0.09170
H79         H  0.25496879  0.46853504  0.68788607     0.08250
N80         N  0.35441801  0.38845303  0.62875227    -0.35590
N81         N  0.36831821  0.40209995  0.60349943    -0.27770
C82         C  0.39000205  0.38990785  0.59632657    -0.03010
C83         C  0.38971278  0.36723653  0.61764916     0.05600
C84         C  0.36672247  0.36701976  0.63776224     0.03690
H85         H  0.40489911  0.39710795  0.57699230     0.08800
H86         H  0.35937625  0.35234106  0.65746301     0.07630
N87         N  0.67360362  0.46243548  0.55126833    -0.26750
N88         N  0.69195001  0.47427873  0.57076018    -0.34610
C89         C  0.69803218  0.49523703  0.54977379     0.01590
C90         C  0.68261469  0.49672545  0.51572226     0.07610
C91         C  0.66735230  0.47570907  0.51741894    -0.05490
H92         H  0.71254263  0.50842060  0.55874455     0.08280
H93         H  0.65288885  0.47040306  0.49566311     0.09480
Cu94       Cu  0.70748995  0.46182659  0.62539158     0.44170
Cu95       Cu  0.65772869  0.42910741  0.57246325     0.41990
Cu96       Cu  0.67363844  0.41229047  0.67779371     0.43880
N97         N  0.71940986  0.44572812  0.67992159    -0.34140
N98         N  0.70713412  0.42759396  0.69930431    -0.28390
C99         C  0.72027146  0.42085670  0.73302927    -0.04490
C100        C  0.74165433  0.43556039  0.73472803     0.07720
C101        C  0.74053208  0.45114573  0.70080648     0.01520
H102        H  0.71470790  0.40634049  0.75455929     0.09170
H103        H  0.75410861  0.46528010  0.69179072     0.08250
N104        N  0.64476162  0.39561306  0.64435560    -0.35590
N105        N  0.64098819  0.39978629  0.60473631    -0.27770
C106        C  0.62350309  0.38362134  0.59082964    -0.03010
C107        C  0.61501309  0.36892570  0.62351400     0.05600
C108        C  0.62896327  0.37744814  0.65705533     0.03690
H109        H  0.61772194  0.38260743  0.55897413     0.08800
H110        H  0.62783591  0.37108532  0.68860839     0.07630
N111        N  0.33564553  0.96360750  0.44180259    -0.26750
N112        N  0.31393561  0.97248966  0.42831818    -0.34610
C113        C  0.30634910  0.99117693  0.45335698     0.01590
C114        C  0.32440661  0.99438261  0.48342797     0.07610
C115        C  0.34277071  0.97679026  0.47516603    -0.05490
H116        H  0.28936543  0.00208565  0.44921693     0.08280
H117        H  0.35988341  0.97358820  0.49238029     0.09480
Cu118      Cu  0.29652385  0.95986704  0.37514105     0.44170
Cu119      Cu  0.35405001  0.93320337  0.41580857     0.41990
Cu120      Cu  0.32252706  0.90285699  0.33101267     0.43880
N121        N  0.28323100  0.94329861  0.32167002    -0.34140
N122        N  0.29188466  0.92175040  0.30697855    -0.28390
C123        C  0.27844818  0.91527097  0.27356315    -0.04490
C124        C  0.26091385  0.93389101  0.26654389     0.07720
C125        C  0.26442348  0.95143731  0.29737553     0.01520
H126        H  0.28150993  0.89848273  0.25537503     0.09170
H127        H  0.25372108  0.96847739  0.30242593     0.08250
N128        N  0.35549357  0.88956529  0.35676736    -0.35590
N129        N  0.36718300  0.90083617  0.38760785    -0.27770
C130        C  0.38803153  0.88776878  0.39699332    -0.03010
C131        C  0.38954363  0.86731776  0.37069918     0.05600
C132        C  0.36861348  0.86905117  0.34558148     0.03690
H133        H  0.40114232  0.89281524  0.42109530     0.08800
H134        H  0.36323785  0.85628254  0.32116134     0.07630
O135        O  0.52955223  0.78137435  0.33313346    -0.72410
O136        O  0.47657822  0.72777852  0.33415632    -0.73390
O137        O  0.47595473  0.78117001  0.33413247    -0.62010
O138        O  0.52969414  0.72797105  0.33377821    -0.70420
O139        O  0.53009952  0.72865116  0.40206435    -0.69970
O140        O  0.47666553  0.78157457  0.40198636    -0.61220
O141        O  0.47669228  0.72805536  0.40252730    -0.73730
O142        O  0.52956714  0.78213408  0.40121727    -0.72510
Cu143      Cu  0.50292845  0.75459831  0.33143255     1.04560
Cu144      Cu  0.50326444  0.75509191  0.40429135     1.04330
C145        C  0.53802941  0.79036264  0.36691681     0.93790
C146        C  0.46833768  0.71935475  0.36842786     0.92930
C147        C  0.46765839  0.78993947  0.36819794     0.85080
C148        C  0.53838067  0.71986942  0.36804420     0.91350
N149        N  0.67001196  0.96541767  0.43171778    -0.26750
N150        N  0.69123837  0.97449912  0.41665006    -0.34610
C151        C  0.69903060  0.99367286  0.44058017     0.01590
C152        C  0.68159396  0.99701660  0.47155919     0.07610
C153        C  0.66340359  0.97894947  0.46499466    -0.05490
H154        H  0.71580371  0.00471603  0.43522960     0.08280
H155        H  0.64682136  0.97558403  0.48344377     0.09480
Cu156      Cu  0.70782154  0.96126795  0.36304250     0.44170
Cu157      Cu  0.65161317  0.93424429  0.40793579     0.41990
Cu158      Cu  0.67965655  0.90537572  0.31835256     0.43880
N159        N  0.72042271  0.94444241  0.30921042    -0.34140
N160        N  0.71080169  0.92344473  0.29394311    -0.28390
C161        C  0.72402284  0.91664847  0.26044992    -0.04490
C162        C  0.74247335  0.93447569  0.25403067     0.07720
C163        C  0.73969387  0.95186057  0.28531525     0.01520
H164        H  0.72033410  0.90009447  0.24199336     0.09170
H165        H  0.75120349  0.96829656  0.29093913     0.08250
N166        N  0.64777313  0.89154769  0.34719127    -0.35590
N167        N  0.63769820  0.90193485  0.38030616    -0.27770
C168        C  0.61763090  0.88829416  0.39192975    -0.03010
C169        C  0.61486904  0.86851885  0.36459779     0.05600
C170        C  0.63423773  0.87115742  0.33659093     0.03690
H171        H  0.60584009  0.89254031  0.41815395     0.08800
H172        H  0.63830668  0.85904257  0.31065834     0.07630
N173        N  0.33720841  0.54462363  0.43176032    -0.26750
N174        N  0.31564440  0.53582693  0.41753348    -0.34610
C175        C  0.30786684  0.51690734  0.44204453     0.01590
C176        C  0.32570397  0.51341705  0.47247121     0.07610
C177        C  0.34407496  0.53115271  0.46498805    -0.05490
H178        H  0.29081649  0.50615164  0.43749107     0.08280
H179        H  0.36090155  0.53441790  0.48290050     0.09480
Cu180      Cu  0.29874428  0.54924327  0.36422796     0.44170
Cu181      Cu  0.35559786  0.57553445  0.40726496     0.41990
Cu182      Cu  0.32714458  0.60502279  0.31852256     0.43880
N183        N  0.28619738  0.56597827  0.31020884    -0.34140
N184        N  0.29595450  0.58676794  0.29438348    -0.28390
C185        C  0.28275160  0.59330876  0.26065500    -0.04490
C186        C  0.26414120  0.57556709  0.25477655     0.07720
C187        C  0.26682215  0.55849842  0.28655931     0.01520
H188        H  0.28651474  0.60966713  0.24175089     0.09170
H189        H  0.25521527  0.54219188  0.29261988     0.08250
N190        N  0.35911370  0.61876228  0.34744483    -0.35590
N191        N  0.36946009  0.60793998  0.38002392    -0.27770
C192        C  0.38965352  0.62137543  0.39172495    -0.03010
C193        C  0.39212544  0.64150102  0.36509909     0.05600
C194        C  0.37253794  0.63934110  0.33738191     0.03690
H195        H  0.40161315  0.61683225  0.41763672     0.08800
H196        H  0.36831420  0.65180942  0.31194943     0.07630
N197        N  0.71071416  0.58465615  0.30122632    -0.26750
N198        N  0.72200487  0.56534868  0.31913622    -0.34610
C199        C  0.74258781  0.55923892  0.29732039     0.01590
C200        C  0.74452082  0.57589900  0.26479216     0.07610
C201        C  0.72413796  0.59179380  0.26815219    -0.05490
H202        H  0.75537131  0.54409056  0.30496501     0.08280
H203        H  0.71915363  0.60706406  0.24767913     0.09480
Cu204      Cu  0.70953346  0.54934449  0.37358097     0.44170
Cu205      Cu  0.67743779  0.60023754  0.32216185     0.41990
Cu206      Cu  0.66020251  0.58414048  0.42621333     0.43880
N207        N  0.69341329  0.53802489  0.42857319    -0.34140
N208        N  0.67537796  0.55054419  0.44770668    -0.28390
C209        C  0.66855446  0.53761805  0.48158984    -0.04490
C210        C  0.68310707  0.51613923  0.48376907     0.07720
C211        C  0.69871747  0.51698225  0.44994106     0.01520
H212        H  0.65409257  0.54343063  0.50297635     0.09170
H213        H  0.71275496  0.50323724  0.44127392     0.08250
N214        N  0.64352571  0.61305862  0.39287983    -0.35590
N215        N  0.64782525  0.61678170  0.35333500    -0.27770
C216        C  0.63175649  0.63424741  0.33909698    -0.03010
C217        C  0.61702317  0.64285578  0.37157028     0.05600
C218        C  0.62539545  0.62893013  0.40529470     0.03690
H219        H  0.63090184  0.63996077  0.30718726     0.08800
H220        H  0.61901744  0.63017382  0.43680051     0.07630
O221        O  0.03075674  0.72872047  0.15286933    -0.72410
O222        O  0.97646940  0.78135492  0.15418536    -0.73390
O223        O  0.97767584  0.72788123  0.15341062    -0.62010
O224        O  0.02996052  0.78194199  0.15365406    -0.70420
O225        O  0.02967968  0.78249418  0.08550813    -0.69970
O226        O  0.97642433  0.72885839  0.08561094    -0.61220
O227        O  0.97669821  0.78224456  0.08576069    -0.73730
O228        O  0.02993604  0.72887671  0.08453591    -0.72510
Cu229      Cu  0.00371263  0.75497937  0.15588141     1.04560
Cu230      Cu  0.00318867  0.75559610  0.08297847     1.04330
C231        C  0.03886966  0.72044282  0.11840782     0.93790
C232        C  0.96816917  0.79016007  0.12012040     0.92930
C233        C  0.96846539  0.71971272  0.11963472     0.85080
C234        C  0.03821962  0.79085287  0.11970167     0.91350
N235        N  0.17012614  0.96567608  0.05612850    -0.26750
N236        N  0.19133077  0.97478819  0.07127208    -0.34610
C237        C  0.19917992  0.99387196  0.04722762     0.01590
C238        C  0.18178045  0.99710238  0.01612691     0.07610
C239        C  0.16356517  0.97909692  0.02270003    -0.05490
H240        H  0.21593698  0.00493804  0.05260803     0.08280
H241        H  0.14701069  0.97569108  0.00417167     0.09480
Cu242      Cu  0.20778158  0.96177235  0.12506301     0.44170
Cu243      Cu  0.15167240  0.93459851  0.07974235     0.41990
Cu244      Cu  0.17980965  0.90534530  0.16841273     0.43880
N245        N  0.22015039  0.94469872  0.17875872    -0.34140
N246        N  0.21071244  0.92341322  0.19323024    -0.28390
C247        C  0.22383467  0.91634605  0.22667238    -0.04490
C248        C  0.24198156  0.93432009  0.23396786     0.07720
C249        C  0.23916524  0.95208998  0.20325200     0.01520
H250        H  0.22021805  0.89955347  0.24458792     0.09170
H251        H  0.25051961  0.96872725  0.19833994     0.08250
N252        N  0.14790681  0.89165352  0.13976940    -0.35590
N253        N  0.13775025  0.90222951  0.10685098    -0.27770
C254        C  0.11763720  0.88869902  0.09513474    -0.03010
C255        C  0.11495955  0.86880865  0.12225140     0.05600
C256        C  0.13439086  0.87124003  0.15021466     0.03690
H257        H  0.10577900  0.89309403  0.06903508     0.08800
H258        H  0.13850779  0.85899523  0.17598989     0.07630
N259        N  0.17439634  0.55004476  0.04061001    -0.26750
N260        N  0.19374671  0.53847442  0.05784396    -0.34610
C261        C  0.19957266  0.51800293  0.03535355     0.01590
C262        C  0.18278773  0.51646950  0.00299438     0.07610
C263        C  0.16703882  0.53694208  0.00724163    -0.05490
H264        H  0.21456864  0.50495552  0.04252070     0.08280
H265        H  0.15155184  0.54208727  0.98736211     0.09480
Cu266      Cu  0.21031567  0.55021015  0.11245254     0.44170
Cu267      Cu  0.15872335  0.58306767  0.06308170     0.41990
Cu268      Cu  0.17809863  0.60114263  0.16515429     0.43880
N269        N  0.22253124  0.56582811  0.16753632    -0.34140
N270        N  0.21112710  0.58482731  0.18610996    -0.28390
C271        C  0.22438536  0.59137415  0.21974698    -0.04490
C272        C  0.24481242  0.57548921  0.22269269     0.07720
C273        C  0.24308374  0.55945574  0.18933462     0.01520
H274        H  0.21938079  0.60640573  0.24067200     0.09170
H275        H  0.25599326  0.54454326  0.18112698     0.08250
N276        N  0.14824131  0.61767062  0.13425153    -0.35590
N277        N  0.14280247  0.61270980  0.09542487    -0.27770
C278        C  0.12442075  0.62827807  0.08288293    -0.03010
C279        C  0.11720859  0.64340713  0.11579480     0.05600
C280        C  0.13279642  0.63585407  0.14793056     0.03690
H281        H  0.11699514  0.62848561  0.05189593     0.08800
H282        H  0.13290359  0.64282578  0.17919608     0.07630
N283        N  0.83388725  0.96128725  0.04205552    -0.26750
N284        N  0.81363521  0.97185780  0.05809998    -0.34610
C285        C  0.80711755  0.99186400  0.03496058     0.01590
C286        C  0.82438214  0.99416156  0.00347956     0.07610
C287        C  0.84113441  0.97462025  0.00888832    -0.05490
H288        H  0.79135761  0.00415373  0.04119414     0.08280
H289        H  0.85723917  0.97023419  0.98989168     0.09480
Cu290      Cu  0.79675679  0.95963246  0.11213717     0.44170
Cu291      Cu  0.85070386  0.92905292  0.06528471     0.41990
Cu292      Cu  0.82650331  0.90621367  0.16193330     0.43880
N293        N  0.78404966  0.94374171  0.16670793    -0.34140
N294        N  0.79438102  0.92366092  0.18393464    -0.28390
C295        C  0.78102337  0.91720347  0.21746772    -0.04490
C296        C  0.76170836  0.93430822  0.22185425     0.07720
C297        C  0.76415466  0.95093844  0.18937253     0.01520
H298        H  0.78525458  0.90143768  0.23740628     0.09170
H299        H  0.75210054  0.96675401  0.18224187     0.08250
N300        N  0.85762805  0.89094377  0.13289915    -0.35590
N301        N  0.86562374  0.89839368  0.09637448    -0.27770
C302        C  0.88512685  0.88391529  0.08499190    -0.03010
C303        C  0.89007672  0.86674377  0.11625029     0.05600
C304        C  0.87221822  0.87193788  0.14619410     0.03690
H305        H  0.89491893  0.88580014  0.05598074     0.08800
H306        H  0.87003816  0.86274467  0.17570311     0.07630
N307        N  0.79345303  0.58843217  0.18980833    -0.26750
N308        N  0.78575828  0.56596174  0.17759410    -0.34610
C309        C  0.76767155  0.55775955  0.20316264     0.01590
C310        C  0.76358379  0.57614606  0.23240130     0.07610
C311        C  0.78006033  0.59540488  0.22303182    -0.05490
H312        H  0.75773216  0.54009838  0.19991576     0.08280
H313        H  0.78233773  0.61301788  0.23935087     0.09480
Cu314      Cu  0.79917707  0.54825453  0.12541797     0.44170
Cu315      Cu  0.82293236  0.60755817  0.16212660     0.41990
Cu316      Cu  0.85830181  0.57134320  0.08674316     0.43880
N317        N  0.81626821  0.53441075  0.07301085    -0.34140
N318        N  0.83864659  0.54179818  0.06017183    -0.28390
C319        C  0.84503542  0.52827540  0.02674826    -0.04490
C320        C  0.82550246  0.51204471  0.01790687     0.07720
C321        C  0.80754889  0.51641412  0.04763404     0.01520
H322        H  0.86239718  0.53040651  0.00978279     0.09170
H323        H  0.78976864  0.50678691  0.05123337     0.08250
N324        N  0.87016528  0.60547985  0.11091699    -0.35590
N325        N  0.85653070  0.61937056  0.13620188    -0.27770
C326        C  0.86866435  0.64111444  0.14352251    -0.03010
C327        C  0.89126326  0.64084798  0.12231352     0.05600
C328        C  0.89152591  0.61784117  0.10208601     0.03690
H329        H  0.86147249  0.65603311  0.16287008     0.08800
H330        H  0.90616547  0.61053771  0.08234805     0.07630
O331        O  0.97612135  0.22868221  0.90050420    -0.72410
O332        O  0.03010398  0.28163260  0.90169055    -0.73390
O333        O  0.97670914  0.28197192  0.90118248    -0.62010
O334        O  0.02925970  0.22816639  0.90108399    -0.70420
O335        O  0.03092910  0.22953941  0.83328838    -0.69970
O336        O  0.97613807  0.28161501  0.83284974    -0.61220
O337        O  0.02926091  0.28292130  0.83328427    -0.73730
O338        O  0.97748284  0.22801564  0.83215561    -0.72510
Cu339      Cu  0.00304772  0.25510668  0.90347305     1.04560
Cu340      Cu  0.00344969  0.25550454  0.83049902     1.04330
C341        C  0.96843923  0.21987081  0.86609876     0.93790
C342        C  0.03796208  0.29077421  0.86761756     0.92930
C343        C  0.96796073  0.29022720  0.86708986     0.85080
C344        C  0.03882597  0.22037871  0.86736239     0.91350
N345        N  0.16938755  0.46593041  0.93087602    -0.26750
N346        N  0.19058999  0.47478456  0.91532875    -0.34610
C347        C  0.19886226  0.49379210  0.93915500     0.01590
C348        C  0.18186815  0.49722855  0.97072403     0.07610
C349        C  0.16336061  0.47940843  0.96455338    -0.05490
H350        H  0.21568688  0.50465907  0.93336127     0.08280
H351        H  0.14687103  0.47628630  0.98335751     0.09480
Cu352      Cu  0.20685161  0.46146800  0.86150037     0.44170
Cu353      Cu  0.15017011  0.43523955  0.90679400     0.41990
Cu354      Cu  0.18046523  0.40368009  0.82160487     0.43880
N355        N  0.21980564  0.44377309  0.80862734    -0.34140
N356        N  0.21102116  0.42188088  0.79555796    -0.28390
C357        C  0.22426656  0.41450607  0.76244682    -0.04490
C358        C  0.24183466  0.43287558  0.75382869     0.07720
C359        C  0.23848276  0.45123865  0.78348730     0.01520
H360        H  0.22103183  0.39728689  0.74547933     0.09170
H361        H  0.24924018  0.46838672  0.78720752     0.08250
N362        N  0.14785244  0.39071367  0.84929619    -0.35590
N363        N  0.13641278  0.40257296  0.87980503    -0.27770
C364        C  0.11562004  0.38966166  0.89023572    -0.03010
C365        C  0.11403514  0.36867020  0.86519465     0.05600
C366        C  0.13474075  0.36986727  0.83965303     0.03690
H367        H  0.10280400  0.39497100  0.91456440     0.08800
H368        H  0.13985070  0.35662240  0.81576412     0.07630
N369        N  0.17083921  0.04674167  0.94166332    -0.26750
N370        N  0.19258783  0.03791861  0.92833568    -0.34610
C371        C  0.20019490  0.01925529  0.95346369     0.01590
C372        C  0.18210773  0.01600379  0.98341172     0.07610
C373        C  0.16370971  0.03354283  0.97499574    -0.05490
H374        H  0.21721686  0.00839140  0.94946493     0.08280
H375        H  0.14656760  0.03671267  0.99211270     0.09480
Cu376      Cu  0.21002633  0.05057429  0.87524231     0.44170
Cu377      Cu  0.15240808  0.07712254  0.91560572     0.41990
Cu378      Cu  0.18411102  0.10760881  0.83108509     0.43880
N379        N  0.22331745  0.06708796  0.82173959    -0.34140
N380        N  0.21470094  0.08865431  0.80699281    -0.28390
C381        C  0.22810059  0.09506520  0.77352290    -0.04490
C382        C  0.24556133  0.07637145  0.76652449     0.07720
C383        C  0.24205416  0.05886900  0.79744617     0.01520
H384        H  0.22506534  0.11184735  0.75529032     0.09170
H385        H  0.25270773  0.04180139  0.80255000     0.08250
N386        N  0.15113863  0.12090696  0.85680480    -0.35590
N387        N  0.13937481  0.10956699  0.88748255    -0.27770
C388        C  0.11852331  0.12262955  0.89677570    -0.03010
C389        C  0.11707926  0.14316021  0.87060088     0.05600
C390        C  0.13806303  0.14147297  0.84565521     0.03690
H391        H  0.10534787  0.11750750  0.92071731     0.08800
H392        H  0.14349003  0.15429670  0.82133594     0.07630
N393        N  0.83707360  0.04499611  0.93162281    -0.26750
N394        N  0.81593493  0.03595627  0.91608724    -0.34610
C395        C  0.80790265  0.01680262  0.93981074     0.01590
C396        C  0.82502770  0.01343962  0.97126070     0.07610
C397        C  0.84334354  0.03145826  0.96514999    -0.05490
H398        H  0.79118478  0.00576608  0.93397453     0.08280
H399        H  0.85983027  0.03469666  0.98392298     0.09480
Cu400      Cu  0.79960537  0.04907289  0.86223760     0.44170
Cu401      Cu  0.85585916  0.07600836  0.90776684     0.41990
Cu402      Cu  0.82657143  0.10599888  0.82001662     0.43880
N403        N  0.78686434  0.06611432  0.80872577    -0.34140
N404        N  0.79593119  0.08763925  0.79458452    -0.28390
C405        C  0.78266442  0.09465218  0.76123462    -0.04490
C406        C  0.76480324  0.07639998  0.75365545     0.07720
C407        C  0.76796109  0.05852408  0.78413951     0.01520
H408        H  0.78596592  0.11161491  0.74359071     0.09170
H409        H  0.75687808  0.04168273  0.78887035     0.08250
N410        N  0.85869023  0.11961024  0.84839699    -0.35590
N411        N  0.86956337  0.10855213  0.88030260    -0.27770
C412        C  0.88998830  0.12191590  0.89121982    -0.03010
C413        C  0.89195683  0.14226994  0.86487550     0.05600
C414        C  0.87188804  0.14028303  0.83811644     0.03690
H415        H  0.90240739  0.11721257  0.91645714     0.08800
H416        H  0.86724483  0.15287536  0.81304094     0.07630
N417        N  0.83253116  0.45977711  0.94711474    -0.26750
N418        N  0.81289391  0.47125642  0.93066807    -0.34610
C419        C  0.80721976  0.49161294  0.95349809     0.01590
C420        C  0.82449031  0.49319433  0.98514299     0.07610
C421        C  0.84030930  0.47285680  0.98020929    -0.05490
H422        H  0.79198607  0.50453353  0.94705539     0.08280
H423        H  0.85601623  0.46769180  0.99959117     0.09480
Cu424      Cu  0.79594122  0.45948296  0.87658676     0.44170
Cu425      Cu  0.84779455  0.42681971  0.92410715     0.41990
Cu426      Cu  0.82963499  0.41081700  0.82037796     0.43880
N427        N  0.78378545  0.44430963  0.82131727    -0.34140
N428        N  0.79597233  0.42659796  0.80077393    -0.28390
C429        C  0.78268647  0.42053581  0.76688990    -0.04490
C430        C  0.76127745  0.43519496  0.76626133     0.07720
C431        C  0.76256514  0.45011900  0.80095001     0.01520
H432        H  0.78820737  0.40652608  0.74446078     0.09170
H433        H  0.74905815  0.46409434  0.81078497     0.08250
N434        N  0.85912058  0.39370012  0.85156879    -0.35590
N435        N  0.86382863  0.39771320  0.89093474    -0.27770
C436        C  0.88188981  0.38179777  0.90348584    -0.03010
C437        C  0.88976146  0.36746254  0.87005456     0.05600
C438        C  0.87482326  0.37582915  0.83758779     0.03690
H439        H  0.88863585  0.38084594  0.93485453     0.08800
H440        H  0.87533369  0.36964590  0.80590944     0.07630
C441        C  0.05731339  0.31078411  0.86771194    -0.04800
C442        C  0.08184480  0.30554600  0.88182843    -0.01920
C443        C  0.10044658  0.32446157  0.88077085     0.03070
C444        C  0.09451560  0.34878520  0.86609763    -0.04800
C445        C  0.06995302  0.35406096  0.85217511    -0.01910
C446        C  0.05143268  0.33505688  0.85272085     0.03070
C447        C  0.08816320  0.28048002  0.89630952     0.37720
C448        C  0.06389490  0.37890803  0.83642563     0.37710
C449        C  0.02619986  0.34055663  0.83837329     0.36130
C450        C  0.12565575  0.31898263  0.89519722     0.36130
N451        N  0.00606947  0.34488972  0.82692081    -0.38690
N452        N  0.14577964  0.31464313  0.90666655    -0.38690
N453        N  0.05909465  0.39872660  0.82380372    -0.38130
N454        N  0.09332743  0.26049548  0.90776598    -0.38140
C455        C  0.09728806  0.16288816  0.86965980    -0.04800
C456        C  0.08453585  0.16839962  0.83264684    -0.01920
C457        C  0.06570560  0.18712086  0.83161472     0.03070
C458        C  0.05917694  0.20063631  0.86798969    -0.04800
C459        C  0.07235461  0.19496564  0.90514181    -0.01910
C460        C  0.09117851  0.17625670  0.90578784     0.03070
C461        C  0.09018826  0.15412340  0.79561414     0.37720
C462        C  0.06733510  0.20855752  0.94308589     0.37710
C463        C  0.10491052  0.17135676  0.94367687     0.36130
C464        C  0.05306150  0.19185513  0.79271778     0.36130
N465        N  0.11581986  0.16749461  0.97389502    -0.38690
N466        N  0.04320447  0.19550391  0.76146613    -0.38690
N467        N  0.06349593  0.21926901  0.97349936    -0.38130
N468        N  0.09466677  0.14274487  0.76610865    -0.38140
C469        C  0.94879998  0.20003110  0.86560375    -0.04800
C470        C  0.92593485  0.20374455  0.88687231    -0.01920
C471        C  0.90733569  0.18481238  0.88660906     0.03070
C472        C  0.91148444  0.16209235  0.86518152    -0.04800
C473        C  0.93422513  0.15835250  0.84385236    -0.01910
C474        C  0.95283787  0.17726402  0.84399941     0.03070
C475        C  0.92118692  0.22736881  0.90795559     0.37720
C476        C  0.93844732  0.13498368  0.82174857     0.37710
C477        C  0.97645147  0.17289103  0.82296610     0.36130
C478        C  0.88386710  0.18867725  0.90836040     0.36130
N479        N  0.99526786  0.16926763  0.80620059    -0.38690
N480        N  0.86512669  0.19170821  0.92568076    -0.38690
N481        N  0.94179183  0.11633810  0.80412610    -0.38130
N482        N  0.91741392  0.24624236  0.92467917    -0.38140
C483        C  0.94816568  0.31002515  0.86744568    -0.04800
C484        C  0.95032376  0.33096602  0.89405301    -0.01920
C485        C  0.93174457  0.34994181  0.89418089     0.03070
C486        C  0.90993376  0.34763734  0.86915753    -0.04800
C487        C  0.90763079  0.32617961  0.84323863    -0.01910
C488        C  0.92692296  0.30794778  0.84160273     0.03070
C489        C  0.97215999  0.33349914  0.92063455     0.37720
C490        C  0.88500449  0.32188155  0.81930891     0.37710
C491        C  0.92441154  0.28652470  0.81406592     0.36130
C492        C  0.93596973  0.37219480  0.91920354     0.36130
N493        N  0.92248105  0.26955400  0.79190893    -0.38690
N494        N  0.93964526  0.38976226  0.93945425    -0.38690
N495        N  0.86709247  0.31817677  0.80000122    -0.38130
N496        N  0.98947912  0.33544286  0.94197819    -0.38140
C497        C  0.05784521  0.81103031  0.12012278    -0.04800
C498        C  0.05910670  0.82851606  0.15320319    -0.01920
C499        C  0.07802792  0.84710053  0.15409947     0.03070
C500        C  0.09536669  0.84902305  0.12149239    -0.04800
C501        C  0.09400323  0.83207207  0.08816157    -0.01910
C502        C  0.07561510  0.81293831  0.08766158     0.03070
C503        C  0.04052648  0.82817852  0.18590727     0.37720
C504        C  0.11209718  0.83385264  0.05484452     0.37710
C505        C  0.07579844  0.79477943  0.05423644     0.36130
C506        C  0.07925746  0.86475161  0.18821668     0.36130
N507        N  0.07605197  0.78034499  0.02751813    -0.38690
N508        N  0.08027398  0.87879553  0.21543611    -0.38690
N509        N  0.12652173  0.83531008  0.02829933    -0.38130
N510        N  0.02575737  0.82800049  0.21204924    -0.38140
C511        C  0.91024533  0.84710806  0.11757307    -0.04800
C512        C  0.90513956  0.82271856  0.13345316    -0.01920
C513        C  0.92429598  0.80437364  0.13535635     0.03070
C514        C  0.94846549  0.80982529  0.12016468    -0.04800
C515        C  0.95361170  0.83385496  0.10370795    -0.01910
C516        C  0.93477955  0.85256095  0.10301647     0.03070
C517        C  0.87994060  0.81584399  0.14616834     0.37720
C518        C  0.97857730  0.83950015  0.08825959     0.37710
C519        C  0.94118231  0.87761415  0.08855080     0.36130
C520        C  0.91885953  0.77948144  0.15159399     0.36130
N521        N  0.94646232  0.89753400  0.07690203    -0.38690
N522        N  0.91445128  0.75965468  0.16453530    -0.38690
N523        N  0.99847560  0.84392439  0.07590602    -0.38130
N524        N  0.85989057  0.81019726  0.15634819    -0.38140
C525        C  0.09705286  0.66324083  0.11651869    -0.04800
C526        C  0.10001865  0.68550415  0.14035683    -0.01920
C527        C  0.08077083  0.70380134  0.14171348     0.03070
C528        C  0.05883897  0.70085068  0.11773017    -0.04800
C529        C  0.05600970  0.67910363  0.09316835    -0.01910
C530        C  0.07459890  0.66013093  0.09336019     0.03070
C531        C  0.12320727  0.69046017  0.16241951     0.37720
C532        C  0.03347813  0.67575616  0.06852649     0.37950
C533        C  0.06972958  0.63701559  0.07087855     0.36130
C534        C  0.08397071  0.72617557  0.16694403     0.36130
N535        N  0.06556524  0.61870680  0.05275338    -0.38690
N536        N  0.08645490  0.74394331  0.18720182    -0.38690
N537        N  0.01561921  0.67306353  0.04867152    -0.38130
N538        N  0.14157894  0.69467015  0.18022707    -0.38140
C539        C  0.94848559  0.69952623  0.12014451    -0.04800
C540        C  0.94155086  0.68655860  0.08344202    -0.01920
C541        C  0.92264660  0.66787046  0.08411550     0.03070
C542        C  0.91096073  0.66092782  0.12153814    -0.04800
C543        C  0.91807152  0.67334656  0.15824534    -0.01910
C544        C  0.93610394  0.69284886  0.15751631     0.03070
C545        C  0.95374416  0.69195642  0.04441031     0.37720
C546        C  0.90750820  0.66556477  0.19751235     0.37710
C547        C  0.94123140  0.70609230  0.19578666     0.36130
C548        C  0.91473706  0.65639797  0.04559776     0.36130
N549        N  0.94508814  0.71656544  0.22643153    -0.38690
N550        N  0.90855098  0.64734554  0.01477141    -0.38690
N551        N  0.89920249  0.65947750  0.22892847    -0.38130
N552        N  0.96329423  0.69608589  0.01309484    -0.38140
C553        C  0.55780876  0.81046971  0.36630694    -0.04800
C554        C  0.55937713  0.82771161  0.33287720    -0.01920
C555        C  0.57820120  0.84643348  0.33221773     0.03070
C556        C  0.59528951  0.84863587  0.36521352    -0.04800
C557        C  0.59371681  0.83182529  0.39874941    -0.01910
C558        C  0.57534920  0.81264837  0.39915374     0.03070
C559        C  0.54124064  0.82697228  0.29947470     0.37720
C560        C  0.61157858  0.83378537  0.43243287     0.37710
C561        C  0.57531670  0.79472845  0.43296491     0.36130
C562        C  0.57952397  0.86400309  0.29797367     0.36130
N563        N  0.57538114  0.78048783  0.45999181    -0.38690
N564        N  0.58059755  0.87800648  0.27068219    -0.38690
N565        N  0.62581324  0.83536405  0.45928253    -0.38130
N566        N  0.52686763  0.82649087  0.27270701    -0.38140
C567        C  0.44898896  0.69919957  0.36833176    -0.04800
C568        C  0.42686446  0.70177173  0.39203250    -0.01920
C569        C  0.40828554  0.68283264  0.39100005     0.03070
C570        C  0.41165076  0.66129620  0.36622414    -0.04800
C571        C  0.43369871  0.65860608  0.34265468    -0.01910
C572        C  0.45235847  0.67745140  0.34373789     0.03070
C573        C  0.42266749  0.72431556  0.41627360     0.37720
C574        C  0.43721239  0.63632450  0.31743729     0.37710
C575        C  0.47535347  0.67406335  0.32041715     0.36130
C576        C  0.38549811  0.68561607  0.41504344     0.36130
N577        N  0.49371494  0.67138142  0.30188432    -0.38690
N578        N  0.36729914  0.68781058  0.43416289    -0.38690
N579        N  0.43998491  0.61853946  0.29734214    -0.38130
N580        N  0.41913106  0.74227071  0.43560467    -0.38140
C581        C  0.55824662  0.70009289  0.36848611    -0.04800
C582        C  0.57876468  0.70146446  0.34104338    -0.01920
C583        C  0.59820082  0.68337188  0.34279873     0.03070
C584        C  0.59669206  0.66259336  0.37041495    -0.04800
C585        C  0.57549331  0.66090521  0.39689861    -0.01910
C586        C  0.55689034  0.67987088  0.39671160     0.03070
C587        C  0.58042322  0.72205005  0.31163237     0.37720
C588        C  0.57184941  0.63926879  0.42357438     0.37710
C589        C  0.53585334  0.67805621  0.42505208     0.36130
C590        C  0.62014525  0.68720371  0.31708153     0.36130
N591        N  0.51920650  0.67670634  0.44784939    -0.38690
N592        N  0.63745755  0.69059595  0.29625932    -0.38690
N593        N  0.56859496  0.62221314  0.44516632    -0.38130
N594        N  0.58167516  0.73832839  0.28797512    -0.38140
C595        C  0.40931145  0.84757454  0.36993607    -0.04800
C596        C  0.42242189  0.84234352  0.33321211    -0.01920
C597        C  0.44140257  0.82376584  0.33248104     0.03070
C598        C  0.44749039  0.80988499  0.36874122    -0.04800
C599        C  0.43407745  0.81542509  0.40568220    -0.01910
C600        C  0.41518493  0.83406402  0.40606031     0.03070
C601        C  0.41697665  0.85676501  0.29620434     0.37720
C602        C  0.43916932  0.80206924  0.44385798     0.37710
C603        C  0.40116404  0.83878470  0.44367590     0.36130
C604        C  0.45486932  0.81975522  0.29416622     0.36130
N605        N  0.39001929  0.84251292  0.47366083    -0.38690
N606        N  0.46542966  0.81671063  0.26340949    -0.38690
N607        N  0.44311990  0.79170021  0.47458292    -0.38130
N608        N  0.41265054  0.86824634  0.26670728    -0.38140
C609        C  0.44805063  0.30955448  0.62024114    -0.04800
C610        C  0.44164695  0.32215058  0.58288256    -0.01920
C611        C  0.42224024  0.34030170  0.58197345     0.03070
C612        C  0.40970828  0.34739676  0.61855640    -0.04800
C613        C  0.41634020  0.33540838  0.65594987    -0.01910
C614        C  0.43471123  0.31617940  0.65665295     0.03070
C615        C  0.45492356  0.31693538  0.54474790     0.37720
C616        C  0.40489813  0.34334187  0.69442091     0.37710
C617        C  0.43912346  0.30300745  0.69522098     0.36130
C618        C  0.41465290  0.35096037  0.54263537     0.36130
N619        N  0.44240828  0.29256108  0.72608390    -0.38690
N620        N  0.40871066  0.35931495  0.51114338    -0.38690
N621        N  0.39589135  0.34959957  0.72520651    -0.38130
N622        N  0.46531555  0.31293080  0.51412953    -0.38140
C623        C  0.55944661  0.20032311  0.62042098    -0.04800
C624        C  0.58253536  0.20641930  0.60134502    -0.01920
C625        C  0.60199618  0.18840935  0.59942660     0.03070
C626        C  0.59851700  0.16426529  0.61662262    -0.04800
C627        C  0.57555510  0.15815190  0.63571153    -0.01910
C628        C  0.55601333  0.17604895  0.63733528     0.03070
C629        C  0.58638396  0.23133986  0.58404675     0.37720
C630        C  0.57207435  0.13337592  0.65378117     0.37710
C631        C  0.53198508  0.16881008  0.65437111     0.36130
C632        C  0.62547439  0.19453542  0.57913877     0.36130
N633        N  0.51294620  0.16223002  0.66761267    -0.38690
N634        N  0.64419646  0.19934443  0.56286083    -0.38690
N635        N  0.56935315  0.11363327  0.66824997    -0.38130
N636        N  0.58941843  0.25121292  0.57023272    -0.38140
C637        C  0.55853194  0.30930155  0.62047767    -0.04800
C638        C  0.55684194  0.33005427  0.59334227    -0.01920
C639        C  0.57464958  0.34977417  0.59522080     0.03070
C640        C  0.59549583  0.34835158  0.62255663    -0.04800
C641        C  0.59751450  0.32697717  0.64878705    -0.01910
C642        C  0.57885253  0.30804534  0.64848586     0.03070
C643        C  0.53622075  0.33170934  0.56414485     0.37720
C644        C  0.61914677  0.32355967  0.67543046     0.37710
C645        C  0.58106073  0.28683086  0.67659138     0.36130
C646        C  0.57042671  0.37198319  0.57006144     0.36130
N647        N  0.58273069  0.27005514  0.69923150    -0.38690
N648        N  0.56672997  0.38953114  0.54974662    -0.38690
N649        N  0.63620225  0.32049865  0.69700662    -0.38130
N650        N  0.51995266  0.33303767  0.54057521    -0.38140
C651        C  0.44740663  0.20029100  0.62457444    -0.04800
C652        C  0.44589822  0.18240285  0.65703720    -0.01920
C653        C  0.42805155  0.16281650  0.65541453     0.03070
C654        C  0.41040927  0.16187747  0.62309462    -0.04800
C655        C  0.41063455  0.18056091  0.59225494    -0.01910
C656        C  0.42907421  0.19964461  0.59281517     0.03070
C657        C  0.46209613  0.18420904  0.69287689     0.37720
C658        C  0.39127202  0.18064929  0.56073747     0.37710
C659        C  0.42796564  0.21955109  0.56217335     0.36130
C660        C  0.42831780  0.14309745  0.68645225     0.36130
N661        N  0.42692460  0.23552359  0.53793452    -0.38690
N662        N  0.42866506  0.12723317  0.71092614    -0.38690
N663        N  0.37571492  0.18077449  0.53580852    -0.38130
N664        N  0.47455957  0.18574444  0.72201780    -0.38140
loop_ 
_geom_bond_atom_site_label_1 
_geom_bond_atom_site_label_2 
_geom_bond_distance 
_geom_bond_site_symmetry_2 
_ccdc_geom_bond_type 
N1            N2   1.323       .  A
N1            C5   1.344       .  A
N1           Cu9   2.069       .  S
N2            C3   1.345       .  A
N2           Cu8   2.073       .  S
C3            C4   1.380       .  A
C3            H6   1.083       .  S
C4            C5   1.378       .  A
C4          C114   1.461   1_545  S
C5            H7   1.082       .  S
Cu8          N11   2.072       .  S
Cu9          N19   2.069       .  S
Cu10         N12   2.065       .  S
Cu10         N18   2.065       .  S
N11          N12   1.322       .  A
N11          C15   1.346       .  A
N12          C13   1.343       .  A
C13          C14   1.378       .  A
C13          H16   1.082       .  S
C14          C15   1.381       .  A
C14         C382   1.461       .  S
C15          H17   1.082       .  S
N18          N19   1.322       .  A
N18          C22   1.343       .  A
N19          C20   1.345       .  A
C20          C21   1.382       .  A
C20          H23   1.082       .  S
C21          C22   1.380       .  A
C21         C654   1.479       .  S
C22          H24   1.081       .  S
O25         Cu33   2.002       .  S
O25          C35   1.276       .  A
O26         Cu33   2.001       .  S
O26          C36   1.277       .  A
O27         Cu33   2.017       .  S
O27          C37   1.279       .  A
O28         Cu33   2.027       .  S
O28          C38   1.280       .  A
O29         Cu34   2.002       .  S
O29          C38   1.276       .  A
O30         Cu34   2.003       .  S
O30          C37   1.276       .  A
O31         Cu34   2.017       .  S
O31          C36   1.279       .  A
O32         Cu34   2.013       .  S
O32          C35   1.279       .  A
Cu33        Cu34   2.364       .  S
C35         C651   1.495       .  S
C36         C637   1.494       .  S
C37         C609   1.511       .  S
C38         C623   1.484       .  S
N39          N40   1.323       .  A
N39          C43   1.345       .  A
N39         Cu47   2.074       .  S
N40          C41   1.346       .  A
N40         Cu46   2.074       .  S
C41          C42   1.381       .  A
C41          H44   1.082       .  S
C42          C43   1.380       .  A
C42         C152   1.464   1_545  S
C43          H45   1.082       .  S
Cu46         N49   2.074       .  S
Cu47         N57   2.074       .  S
Cu48         N50   2.070       .  S
Cu48         N56   2.071       .  S
N49          N50   1.323       .  A
N49          C53   1.346       .  A
N50          C51   1.344       .  A
C51          C52   1.379       .  A
C51          H54   1.082       .  S
C52          C53   1.381       .  A
C52         C406   1.463       .  S
C53          H55   1.082       .  S
N56          N57   1.322       .  A
N56          C60   1.345       .  A
N57          C58   1.345       .  A
C58          C59   1.382       .  A
C58          H61   1.082       .  S
C59          C60   1.381       .  A
C59         C626   1.480       .  S
C60          H62   1.081       .  S
N63          N64   1.323       .  A
N63          C67   1.344       .  A
N63         Cu71   2.074       .  S
N64          C65   1.346       .  A
N64         Cu70   2.073       .  S
C65          C66   1.381       .  A
C65          H68   1.083       .  S
C66          C67   1.380       .  A
C66         C176   1.464       .  S
C67          H69   1.082       .  S
Cu70         N73   2.073       .  S
Cu71         N81   2.075       .  S
Cu72         N74   2.076       .  S
Cu72         N80   2.076       .  S
N73          N74   1.323       .  A
N73          C77   1.346       .  A
N74          C75   1.345       .  A
C75          C76   1.381       .  A
C75          H78   1.081       .  S
C76          C77   1.381       .  A
C76         C358   1.465       .  S
C77          H79   1.082       .  S
N80          N81   1.321       .  A
N80          C84   1.345       .  A
N81          C82   1.345       .  A
C82          C83   1.388       .  A
C82          H85   1.082       .  S
C83          C84   1.388       .  A
C83         C612   1.498       .  S
C84          H86   1.081       .  S
N87          N88   1.322       .  A
N87          C91   1.346       .  A
N87         Cu95   2.078       .  S
N88          C89   1.344       .  A
N88         Cu94   2.064       .  S
C89          C90   1.378       .  A
C89          H92   1.082       .  S
C90          C91   1.381       .  A
C90         C210   1.462       .  S
C91          H93   1.082       .  S
Cu94         N97   2.064       .  S
Cu95        N105   2.077       .  S
Cu96         N98   2.080       .  S
Cu96        N104   2.079       .  S
N97          N98   1.323       .  A
N97         C101   1.344       .  A
N98          C99   1.346       .  A
C99         C100   1.382       .  A
C99         H102   1.081       .  S
C100        C101   1.378       .  A
C100        C430   1.462       .  S
C101        H103   1.082       .  S
N104        N105   1.320       .  A
N104        C108   1.345       .  A
N105        C106   1.344       .  A
C106        C107   1.392       .  A
C106        H109   1.080       .  S
C107        C108   1.393       .  A
C107        C640   1.508       .  S
C108        H110   1.080       .  S
N111        N112   1.323       .  A
N111        C115   1.344       .  A
N111       Cu119   2.069       .  S
N112        C113   1.345       .  A
N112       Cu118   2.070       .  S
C113        C114   1.380       .  A
C113        H116   1.082   1_565  S
C114        C115   1.379       .  A
C115        H117   1.082       .  S
Cu118       N121   2.070       .  S
Cu119       N129   2.069       .  S
Cu120       N122   2.067       .  S
Cu120       N128   2.068       .  S
N121        N122   1.323       .  A
N121        C125   1.345       .  A
N122        C123   1.343       .  A
C123        C124   1.379       .  A
C123        H126   1.082       .  S
C124        C125   1.380       .  A
C124        C248   1.460       .  S
C125        H127   1.082       .  S
N128        N129   1.321       .  A
N128        C132   1.344       .  A
N129        C130   1.344       .  A
C130        C131   1.384       .  A
C130        H133   1.082       .  S
C131        C132   1.383       .  A
C131        C595   1.486       .  S
C132        H134   1.081       .  S
O135       Cu143   2.008       .  S
O135        C145   1.278       .  A
O136       Cu143   2.001       .  S
O136        C146   1.277       .  A
O137       Cu143   2.015       .  S
O137        C147   1.279       .  A
O138       Cu143   2.009       .  S
O138        C148   1.278       .  A
O139       Cu144   2.005       .  S
O139        C148   1.278       .  A
O140       Cu144   1.997       .  S
O140        C147   1.276       .  A
O141       Cu144   2.016       .  S
O141        C146   1.279       .  A
O142       Cu144   2.008       .  S
O142        C145   1.278       .  A
Cu143      Cu144   2.364       .  S
C145        C553   1.500       .  S
C146        C567   1.485       .  S
C147        C598   1.508       .  S
C148        C581   1.491       .  S
N149        N150   1.323       .  A
N149        C153   1.344       .  A
N149       Cu157   2.072       .  S
N150        C151   1.346       .  A
N150       Cu156   2.075       .  S
C151        C152   1.381       .  A
C151        H154   1.083   1_565  S
C152        C153   1.380       .  A
C153        H155   1.082       .  S
Cu156       N159   2.075       .  S
Cu157       N167   2.072       .  S
Cu158       N160   2.074       .  S
Cu158       N166   2.074       .  S
N159        N160   1.323       .  A
N159        C163   1.346       .  A
N160        C161   1.345       .  A
C161        C162   1.380       .  A
C161        H164   1.082       .  S
C162        C163   1.380       .  A
C162        C296   1.464       .  S
C163        H165   1.082       .  S
N166        N167   1.322       .  A
N166        C170   1.345       .  A
N167        C168   1.345       .  A
C168        C169   1.382       .  A
C168        H171   1.082       .  S
C169        C170   1.383       .  A
C169        C556   1.484       .  S
C170        H172   1.082       .  S
N173        N174   1.323       .  A
N173        C177   1.344       .  A
N173       Cu181   2.070       .  S
N174        C175   1.346       .  A
N174       Cu180   2.075       .  S
C175        C176   1.382       .  A
C175        H178   1.083       .  S
C176        C177   1.379       .  A
C177        H179   1.082       .  S
Cu180       N183   2.075       .  S
Cu181       N191   2.070       .  S
Cu182       N184   2.076       .  S
Cu182       N190   2.076       .  S
N183        N184   1.323       .  A
N183        C187   1.345       .  A
N184        C185   1.346       .  A
C185        C186   1.380       .  A
C185        H188   1.082       .  S
C186        C187   1.380       .  A
C186        C272   1.463       .  S
C187        H189   1.082       .  S
N190        N191   1.323       .  A
N190        C194   1.346       .  A
N191        C192   1.345       .  A
C192        C193   1.380       .  A
C192        H195   1.081       .  S
C193        C194   1.381       .  A
C193        C570   1.479       .  S
C194        H196   1.081       .  S
N197        N198   1.322       .  A
N197        C201   1.344       .  A
N197       Cu205   2.071       .  S
N198        C199   1.345       .  A
N198       Cu204   2.070       .  S
C199        C200   1.381       .  A
C199        H202   1.082       .  S
C200        C201   1.379       .  A
C200        C310   1.462       .  S
C201        H203   1.081       .  S
Cu204       N207   2.070       .  S
Cu205       N215   2.070       .  S
Cu206       N208   2.078       .  S
Cu206       N214   2.076       .  S
N207        N208   1.324       .  A
N207        C211   1.344       .  A
N208        C209   1.346       .  A
C209        C210   1.381       .  A
C209        H212   1.082       .  S
C210        C211   1.378       .  A
C211        H213   1.082       .  S
N214        N215   1.318       .  A
N214        C218   1.344       .  A
N215        C216   1.343       .  A
C216        C217   1.392       .  A
C216        H219   1.080       .  S
C217        C218   1.393       .  A
C217        C584   1.507       .  S
C218        H220   1.080       .  S
O221       Cu229   2.007       .  S
O221        C231   1.277       .  A
O222       Cu229   2.017   1_655  S
O222        C232   1.278       .  A
O223       Cu229   2.000   1_655  S
O223        C233   1.276       .  A
O224       Cu229   2.002       .  S
O224        C234   1.277       .  A
O225       Cu230   2.009       .  S
O225        C234   1.278       .  A
O226       Cu230   2.013   1_655  S
O226        C233   1.278       .  A
O227       Cu230   2.000   1_655  S
O227        C232   1.276       .  A
O228       Cu230   2.011       .  S
O228        C231   1.278       .  A
Cu229      Cu230   2.366       .  S
C231        C528   1.488       .  S
C232        C514   1.480       .  S
C233        C539   1.510       .  S
C234        C497   1.497       .  S
N235        N236   1.323       .  A
N235        C239   1.343       .  A
N235       Cu243   2.067       .  S
N236        C237   1.345       .  A
N236       Cu242   2.070       .  S
C237        C238   1.380       .  A
C237        H240   1.082   1_565  S
C238        C239   1.378       .  A
C238        C372   1.460   1_564  S
C239        H241   1.082       .  S
Cu242       N245   2.070       .  S
Cu243       N253   2.068       .  S
Cu244       N246   2.068       .  S
Cu244       N252   2.068       .  S
N245        N246   1.323       .  A
N245        C249   1.345       .  A
N246        C247   1.343       .  A
C247        C248   1.378       .  A
C247        H250   1.081       .  S
C248        C249   1.380       .  A
C249        H251   1.082       .  S
N252        N253   1.322       .  A
N252        C256   1.344       .  A
N253        C254   1.344       .  A
C254        C255   1.382       .  A
C254        H257   1.081       .  S
C255        C256   1.382       .  A
C255        C500   1.481       .  S
C256        H258   1.081       .  S
N259        N260   1.323       .  A
N259        C263   1.345       .  A
N259       Cu267   2.075       .  S
N260        C261   1.346       .  A
N260       Cu266   2.075       .  S
C261        C262   1.381       .  A
C261        H264   1.082       .  S
C262        C263   1.380       .  A
C262        C348   1.464   1_554  S
C263        H265   1.082   1_554  S
Cu266       N269   2.075       .  S
Cu267       N277   2.074       .  S
Cu268       N270   2.075       .  S
Cu268       N276   2.074       .  S
N269        N270   1.323       .  A
N269        C273   1.346       .  A
N270        C271   1.345       .  A
C271        C272   1.380       .  A
C271        H274   1.082       .  S
C272        C273   1.380       .  A
C273        H275   1.082       .  S
N276        N277   1.319       .  A
N276        C280   1.344       .  A
N277        C278   1.344       .  A
C278        C279   1.391       .  A
C278        H281   1.080       .  S
C279        C280   1.391       .  A
C279        C525   1.504       .  S
C280        H282   1.080       .  S
N283        N284   1.323       .  A
N283        C287   1.345       .  A
N283       Cu291   2.073       .  S
N284        C285   1.346       .  A
N284       Cu290   2.075       .  S
C285        C286   1.380       .  A
C285        H288   1.082   1_565  S
C286        C287   1.379       .  A
C286        C396   1.463   1_564  S
C287        H289   1.082   1_554  S
Cu290       N293   2.075       .  S
Cu291       N301   2.072       .  S
Cu292       N294   2.073       .  S
Cu292       N300   2.073       .  S
N293        N294   1.323       .  A
N293        C297   1.346       .  A
N294        C295   1.345       .  A
C295        C296   1.380       .  A
C295        H298   1.081       .  S
C296        C297   1.381       .  A
C297        H299   1.082       .  S
N300        N301   1.320       .  A
N300        C304   1.344       .  A
N301        C302   1.344       .  A
C302        C303   1.388       .  A
C302        H305   1.081       .  S
C303        C304   1.388       .  A
C303        C511   1.497       .  S
C304        H306   1.081       .  S
N307        N308   1.322       .  A
N307        C311   1.345       .  A
N307       Cu315   2.075       .  S
N308        C309   1.344       .  A
N308       Cu314   2.065       .  S
C309        C310   1.379       .  A
C309        H312   1.082       .  S
C310        C311   1.381       .  A
C311        H313   1.082       .  S
Cu314       N317   2.065       .  S
Cu315       N325   2.075       .  S
Cu316       N318   2.073       .  S
Cu316       N324   2.073       .  S
N317        N318   1.322       .  A
N317        C321   1.344       .  A
N318        C319   1.345       .  A
C319        C320   1.381       .  A
C319        H322   1.083       .  S
C320        C321   1.379       .  A
C320        C420   1.461   1_554  S
C321        H323   1.082       .  S
N324        N325   1.321       .  A
N324        C328   1.344       .  A
N325        C326   1.344       .  A
C326        C327   1.387       .  A
C326        H329   1.081       .  S
C327        C328   1.387       .  A
C327        C542   1.496       .  S
C328        H330   1.082       .  S
O331       Cu339   2.008   1_655  S
O331        C341   1.278       .  A
O332       Cu339   2.015       .  S
O332        C342   1.278       .  A
O333       Cu339   2.002   1_655  S
O333        C343   1.277       .  A
O334       Cu339   2.000       .  S
O334        C344   1.277       .  A
O335       Cu340   2.012       .  S
O335        C344   1.278       .  A
O336       Cu340   2.011   1_655  S
O336        C343   1.279       .  A
O337       Cu340   2.004       .  S
O337        C342   1.276       .  A
O338       Cu340   2.011   1_655  S
O338        C341   1.278       .  A
Cu339      Cu340   2.368       .  S
C341        C469   1.484       .  S
C342        C441   1.480       .  S
C343        C483   1.489       .  S
C344        C458   1.508       .  S
N345        N346   1.323       .  A
N345        C349   1.346       .  A
N345       Cu353   2.076       .  S
N346        C347   1.345       .  A
N346       Cu352   2.075       .  S
C347        C348   1.380       .  A
C347        H350   1.082       .  S
C348        C349   1.381       .  A
C349        H351   1.083       .  S
Cu352       N355   2.075       .  S
Cu353       N363   2.076       .  S
Cu354       N356   2.073       .  S
Cu354       N362   2.074       .  S
N355        N356   1.323       .  A
N355        C359   1.347       .  A
N356        C357   1.344       .  A
C357        C358   1.380       .  A
C357        H360   1.081       .  S
C358        C359   1.382       .  A
C359        H361   1.082       .  S
N362        N363   1.323       .  A
N362        C366   1.345       .  A
N363        C364   1.346       .  A
C364        C365   1.382       .  A
C364        H367   1.082       .  S
C365        C366   1.382       .  A
C365        C444   1.482       .  S
C366        H368   1.082       .  S
N369        N370   1.323       .  A
N369        C373   1.343       .  A
N369       Cu377   2.068       .  S
N370        C371   1.345       .  A
N370       Cu376   2.070       .  S
C371        C372   1.380       .  A
C371        H374   1.082       .  S
C372        C373   1.379       .  A
C373        H375   1.082       .  S
Cu376       N379   2.070       .  S
Cu377       N387   2.068       .  S
Cu378       N380   2.069       .  S
Cu378       N386   2.070       .  S
N379        N380   1.323       .  A
N379        C383   1.345       .  A
N380        C381   1.344       .  A
C381        C382   1.379       .  A
C381        H384   1.081       .  S
C382        C383   1.380       .  A
C383        H385   1.082       .  S
N386        N387   1.322       .  A
N386        C390   1.344       .  A
N387        C388   1.344       .  A
C388        C389   1.383       .  A
C388        H391   1.082       .  S
C389        C390   1.384       .  A
C389        C455   1.486       .  S
C390        H392   1.081       .  S
N393        N394   1.323       .  A
N393        C397   1.345       .  A
N393       Cu401   2.076       .  S
N394        C395   1.345       .  A
N394       Cu400   2.071       .  S
C395        C396   1.379       .  A
C395        H398   1.082       .  S
C396        C397   1.381       .  A
C397        H399   1.082       .  S
Cu400       N403   2.071       .  S
Cu401       N411   2.076       .  S
Cu402       N404   2.072       .  S
Cu402       N410   2.072       .  S
N403        N404   1.323       .  A
N403        C407   1.346       .  A
N404        C405   1.344       .  A
C405        C406   1.380       .  A
C405        H408   1.081       .  S
C406        C407   1.380       .  A
C407        H409   1.082       .  S
N410        N411   1.323       .  A
N410        C414   1.345       .  A
N411        C412   1.346       .  A
C412        C413   1.381       .  A
C412        H415   1.081       .  S
C413        C414   1.380       .  A
C413        C472   1.479       .  S
C414        H416   1.081       .  S
N417        N418   1.322       .  A
N417        C421   1.344       .  A
N417       Cu425   2.069       .  S
N418        C419   1.345       .  A
N418       Cu424   2.069       .  S
C419        C420   1.380       .  A
C419        H422   1.083       .  S
C420        C421   1.379       .  A
C421        H423   1.081       .  S
Cu424       N427   2.070       .  S
Cu425       N435   2.069       .  S
Cu426       N428   2.078       .  S
Cu426       N434   2.076       .  S
N427        N428   1.323       .  A
N427        C431   1.344       .  A
N428        C429   1.346       .  A
C429        C430   1.381       .  A
C429        H432   1.082       .  S
C430        C431   1.378       .  A
C431        H433   1.082       .  S
N434        N435   1.319       .  A
N434        C438   1.344       .  A
N435        C436   1.343       .  A
C436        C437   1.391       .  A
C436        H439   1.080       .  S
C437        C438   1.392       .  A
C437        C486   1.504       .  S
C438        H440   1.080       .  S
C441        C442   1.412       .  A
C441        C446   1.412       .  A
C442        C443   1.411       .  A
C442        C447   1.450       .  S
C443        C444   1.412       .  A
C443        C450   1.451       .  S
C444        C445   1.412       .  A
C445        C446   1.411       .  A
C445        C448   1.451       .  S
C446        C449   1.451       .  S
C447        N454   1.157       .  T
C448        N453   1.157       .  T
C449        N451   1.157       .  T
C450        N452   1.157       .  T
C455        C456   1.410       .  A
C455        C460   1.409       .  A
C456        C457   1.412       .  A
C456        C461   1.453       .  S
C457        C458   1.425       .  A
C457        C464   1.452       .  S
C458        C459   1.426       .  A
C459        C460   1.411       .  A
C459        C462   1.452       .  S
C460        C463   1.453       .  S
C461        N468   1.157       .  T
C462        N467   1.158       .  T
C463        N465   1.157       .  T
C464        N466   1.158       .  T
C469        C470   1.414       .  A
C469        C474   1.414       .  A
C470        C471   1.411       .  A
C470        C475   1.451       .  S
C471        C472   1.410       .  A
C471        C478   1.451       .  S
C472        C473   1.410       .  A
C473        C474   1.411       .  A
C473        C476   1.451       .  S
C474        C477   1.450       .  S
C475        N482   1.157       .  T
C476        N481   1.157       .  T
C477        N479   1.157       .  T
C478        N480   1.157       .  T
C483        C484   1.413       .  A
C483        C488   1.412       .  A
C484        C485   1.412       .  A
C484        C489   1.453       .  S
C485        C486   1.422       .  A
C485        C492   1.451       .  S
C486        C487   1.422       .  A
C487        C488   1.413       .  A
C487        C490   1.451       .  S
C488        C491   1.453       .  S
C489        N496   1.157       .  T
C490        N495   1.158       .  T
C491        N493   1.157       .  T
C492        N494   1.158       .  T
C497        C498   1.421       .  A
C497        C502   1.420       .  A
C498        C499   1.410       .  A
C498        C503   1.452       .  S
C499        C500   1.409       .  A
C499        C506   1.452       .  S
C500        C501   1.409       .  A
C501        C502   1.411       .  A
C501        C504   1.452       .  S
C502        C505   1.451       .  S
C503        N510   1.157       .  T
C504        N509   1.157       .  T
C505        N507   1.157       .  T
C506        N508   1.157       .  T
C511        C512   1.420       .  A
C511        C516   1.420       .  A
C512        C513   1.412       .  A
C512        C517   1.451       .  S
C513        C514   1.409       .  A
C513        C520   1.452       .  S
C514        C515   1.410       .  A
C515        C516   1.412       .  A
C515        C518   1.453       .  S
C516        C519   1.451       .  S
C517        N524   1.158       .  T
C518        N523   1.157       .  T
C519        N521   1.158       .  T
C520        N522   1.157       .  T
C525        C526   1.422       .  A
C525        C530   1.421       .  A
C526        C527   1.413       .  A
C526        C531   1.451       .  S
C527        C528   1.412       .  A
C527        C534   1.453       .  S
C528        C529   1.411       .  A
C529        C530   1.412       .  A
C529        C532   1.452       .  S
C530        C533   1.451       .  S
C531        N538   1.158       .  T
C532        N537   1.157       .  T
C533        N535   1.158       .  T
C534        N536   1.157       .  T
C539        C540   1.424       .  A
C539        C544   1.426       .  A
C540        C541   1.414       .  A
C540        C545   1.452       .  S
C541        C542   1.414       .  A
C541        C548   1.453       .  S
C542        C543   1.413       .  A
C543        C544   1.412       .  A
C543        C546   1.453       .  S
C544        C547   1.453       .  S
C545        N552   1.158       .  T
C546        N551   1.157       .  T
C547        N549   1.158       .  T
C548        N550   1.157       .  T
C553        C554   1.421       .  A
C553        C558   1.421       .  A
C554        C555   1.412       .  A
C554        C559   1.452       .  S
C555        C556   1.409       .  A
C555        C562   1.452       .  S
C556        C557   1.409       .  A
C557        C558   1.412       .  A
C557        C560   1.452       .  S
C558        C561   1.452       .  S
C559        N566   1.157       .  T
C560        N565   1.157       .  T
C561        N563   1.157       .  T
C562        N564   1.157       .  T
C567        C568   1.414       .  A
C567        C572   1.415       .  A
C568        C569   1.411       .  A
C568        C573   1.450       .  S
C569        C570   1.410       .  A
C569        C576   1.451       .  S
C570        C571   1.409       .  A
C571        C572   1.410       .  A
C571        C574   1.451       .  S
C572        C575   1.452       .  S
C573        N580   1.157       .  T
C574        N579   1.157       .  T
C575        N577   1.157       .  T
C576        N578   1.157       .  T
C581        C582   1.412       .  A
C581        C586   1.413       .  A
C582        C583   1.413       .  A
C582        C587   1.453       .  S
C583        C584   1.423       .  A
C583        C590   1.451       .  S
C584        C585   1.422       .  A
C585        C586   1.413       .  A
C585        C588   1.451       .  S
C586        C589   1.453       .  S
C587        N594   1.157       .  T
C588        N593   1.158       .  T
C589        N591   1.157       .  T
C590        N592   1.158       .  T
C595        C596   1.410       .  A
C595        C600   1.409       .  A
C596        C597   1.413       .  A
C596        C601   1.453       .  S
C597        C598   1.425       .  A
C597        C604   1.452       .  S
C598        C599   1.427       .  A
C599        C600   1.411       .  A
C599        C602   1.452       .  S
C600        C603   1.453       .  S
C601        N608   1.157       .  T
C602        N607   1.158       .  T
C603        N605   1.157       .  T
C604        N606   1.158       .  T
C609        C610   1.425       .  A
C609        C614   1.424       .  A
C610        C611   1.413       .  A
C610        C615   1.453       .  S
C611        C612   1.414       .  A
C611        C618   1.453       .  S
C612        C613   1.414       .  A
C613        C614   1.414       .  A
C613        C616   1.452       .  S
C614        C617   1.452       .  S
C615        N622   1.158       .  T
C616        N621   1.157       .  T
C617        N619   1.158       .  T
C618        N620   1.157       .  T
C623        C624   1.415       .  A
C623        C628   1.412       .  A
C624        C625   1.412       .  A
C624        C629   1.451       .  S
C625        C626   1.410       .  A
C625        C632   1.451       .  S
C626        C627   1.409       .  A
C627        C628   1.410       .  A
C627        C630   1.452       .  S
C628        C631   1.446       .  S
C629        N636   1.157       .  T
C630        N635   1.157       .  T
C631        N633   1.156       .  T
C632        N634   1.157       .  T
C637        C638   1.413       .  A
C637        C642   1.414       .  A
C638        C639   1.414       .  A
C638        C643   1.452       .  S
C639        C640   1.422       .  A
C639        C646   1.451       .  S
C640        C641   1.422       .  A
C641        C642   1.413       .  A
C641        C644   1.451       .  S
C642        C645   1.453       .  S
C643        N650   1.157       .  T
C644        N649   1.158       .  T
C645        N647   1.157       .  T
C646        N648   1.158       .  T
C651        C652   1.420       .  A
C651        C656   1.419       .  A
C652        C653   1.410       .  A
C652        C657   1.450       .  S
C653        C654   1.408       .  A
C653        C660   1.452       .  S
C654        C655   1.409       .  A
C655        C656   1.411       .  A
C655        C658   1.452       .  S
C656        C659   1.452       .  S
C657        N664   1.158       .  T
C658        N663   1.157       .  T
C659        N661   1.157       .  T
C660        N662   1.157       .  T
