geometry optimzed in LAMMPS
_audit_creation_date              2020-11-30 
_audit_creation_method            'lammps2cif' 
_symmetry_space_group_name_H-M    'P1' 
_symmetry_Int_Tables_number       1 
_symmetry_cell_setting            triclinic 
loop_ 
_symmetry_equiv_pos_as_xyz 
  x,y,z 
_cell_length_a                    33.994411267610374 
_cell_length_b                    33.93596107400442 
_cell_length_c                    24.01993228588353 
_cell_angle_alpha                 90.20467562410651 
_cell_angle_beta                  89.62665914467667 
_cell_angle_gamma                 89.95532068743681 
loop_ 
_atom_site_label 
_atom_site_type_symbol 
_atom_site_fract_x 
_atom_site_fract_y 
_atom_site_fract_z 
_atom_site_charge 
C1          C  0.35966861  0.10502431  0.31536693     0.02980
C2          C  0.32951107  0.10685328  0.35555821    -0.13170
C3          C  0.29956138  0.07849433  0.35610424     0.00480
C4          C  0.29893467  0.04902048  0.31514085    -0.11690
C5          C  0.32836697  0.04756661  0.27410873     0.02980
C6          C  0.35886854  0.07525970  0.27466703    -0.11110
H7          H  0.32948962  0.13010322  0.38660960     0.08570
H8          H  0.27560129  0.02725245  0.31520827     0.06100
H9          H  0.38178402  0.07384209  0.24312124     0.05950
O10         O  0.49155636  0.24134616  0.26217137    -0.73090
O11         O  0.57469477  0.32511103  0.26183598    -0.74070
O12         O  0.57488954  0.24159267  0.26250627    -0.62690
O13         O  0.49131646  0.32532560  0.26155489    -0.71100
O14         O  0.49028001  0.32558853  0.35358761    -0.70650
O15         O  0.57481625  0.24260894  0.35464578    -0.61910
O16         O  0.57394076  0.32633844  0.35376589    -0.74410
O17         O  0.49097362  0.24179159  0.35421537    -0.73190
Cu18       Cu  0.53309889  0.28330949  0.25889567     1.04560
Cu19       Cu  0.53246220  0.28407457  0.35725841     1.04330
C20         C  0.47789449  0.22824555  0.30814550     0.93110
C21         C  0.58764777  0.33913847  0.30752350     0.92250
C22         C  0.58856160  0.22920538  0.30865268     0.84390
C23         C  0.47736577  0.33875214  0.30734842     0.90670
C24         C  0.70761928  0.10694966  0.31328447     0.02980
C25         C  0.70813767  0.07721027  0.27252533    -0.13170
C26         C  0.73794671  0.04865632  0.27211321     0.00480
C27         C  0.76716091  0.04962513  0.31296976    -0.11690
C28         C  0.76687002  0.07920284  0.35387683     0.02980
C29         C  0.73734523  0.10805992  0.35360110    -0.11110
H30         H  0.68545523  0.07638394  0.24102861     0.08570
H31         H  0.79011065  0.02741534  0.31290751     0.06100
H32         H  0.73734895  0.13116108  0.38487772     0.05950
C33         C  0.35951300  0.46267531  0.31337928     0.02980
C34         C  0.35946337  0.49246906  0.27301545    -0.13170
C35         C  0.32918007  0.52044844  0.27189741     0.00480
C36         C  0.29909714  0.51914040  0.31203246    -0.11690
C37         C  0.29899140  0.48963676  0.35273771     0.02980
C38         C  0.32885126  0.46111830  0.35280474    -0.11110
H39         H  0.38278676  0.49364389  0.24206813     0.08570
H40         H  0.27587240  0.54105247  0.31164893     0.06100
H41         H  0.32833633  0.43791508  0.38368770     0.05950
C42         C  0.70809094  0.46064790  0.31434164     0.02980
C43         C  0.70825528  0.49066617  0.27419644    -0.13170
C44         C  0.73811922  0.51907453  0.27357488     0.00480
C45         C  0.76740708  0.51825437  0.31434398    -0.11690
C46         C  0.76744243  0.48861461  0.35484654     0.02980
C47         C  0.73834795  0.45934376  0.35391714    -0.11110
H48         H  0.68529709  0.49178103  0.24312988     0.08570
H49         H  0.79018512  0.54060196  0.31448123     0.06100
H50         H  0.73898388  0.43591666  0.38443586     0.05950
C51         C  0.35388437  0.95655780  0.19041744     0.02980
C52         C  0.35576300  0.98702931  0.22999908    -0.13170
C53         C  0.32733439  0.01693156  0.23076443     0.00480
C54         C  0.29791610  0.01749995  0.19018935    -0.11690
C55         C  0.29650592  0.98786108  0.14952231     0.02980
C56         C  0.32408227  0.95718648  0.15025933    -0.11110
H57         H  0.37912217  0.98735002  0.26048726     0.08570
H58         H  0.27622717  0.04094269  0.19023313     0.06100
H59         H  0.32260525  0.93405463  0.11909867     0.05950
O60         O  0.57519554  0.82712070  0.13840953    -0.73090
O61         O  0.49310925  0.74205298  0.13732945    -0.74070
O62         O  0.49160495  0.82532729  0.13738080    -0.62690
O63         O  0.57646271  0.74350221  0.13799043    -0.71100
O64         O  0.57612140  0.74328733  0.22993579    -0.70650
O65         O  0.49107861  0.82585513  0.22937449    -0.61910
O66         O  0.49259929  0.74197776  0.22947221    -0.74410
O67         O  0.57471765  0.82697373  0.23063095    -0.73190
Cu68       Cu  0.53414270  0.78451740  0.13464998     1.04560
Cu69       Cu  0.53357588  0.78454300  0.23306797     1.04330
C70         C  0.58790168  0.84063190  0.18465994     0.93110
C71         C  0.48003467  0.72826527  0.18325651     0.92250
C72         C  0.47782116  0.83879359  0.18315267     0.84390
C73         C  0.58981173  0.73016518  0.18372074     0.90670
C74         C  0.71080924  0.95832530  0.18837008     0.02980
C75         C  0.71006716  0.98799298  0.22919217    -0.13170
C76         C  0.73858614  0.01780163  0.22891003     0.00480
C77         C  0.76763002  0.01816945  0.18719179    -0.11690
C78         C  0.76823686  0.98881580  0.14595126     0.02980
C79         C  0.73989221  0.95890307  0.14675179    -0.11110
H80         H  0.68739697  0.98783098  0.26113843     0.08570
H81         H  0.78969346  0.04122288  0.18682179     0.06100
H82         H  0.74038343  0.93616737  0.11493188     0.05950
C83         C  0.35763131  0.60962738  0.18692091     0.02980
C84         C  0.35802044  0.58017299  0.22778639    -0.13170
C85         C  0.32897054  0.55089624  0.22846025     0.00480
C86         C  0.30001644  0.55044291  0.18719720    -0.11690
C87         C  0.29987660  0.57930964  0.14561040     0.02980
C88         C  0.32853382  0.60897782  0.14577779    -0.11110
H89         H  0.38071413  0.58021739  0.25928074     0.08570
H90         H  0.27765345  0.52767850  0.18744076     0.06100
H91         H  0.32819793  0.63151781  0.11391632     0.05950
C92         C  0.71126540  0.60958407  0.19055162     0.02980
C93         C  0.74147857  0.60954264  0.15038970    -0.13170
C94         C  0.76966621  0.57942968  0.14923213     0.00480
C95         C  0.76851291  0.54977360  0.18965791    -0.11690
C96         C  0.73872601  0.54970647  0.23033047     0.02980
C97         C  0.70961336  0.57899736  0.22977560    -0.11110
H98         H  0.74285932  0.63276237  0.11955818     0.08570
H99         H  0.79068453  0.52679003  0.18942380     0.06100
H100        H  0.68601010  0.57821100  0.26028726     0.05950
O101        O  0.07448136  0.82621437  0.10941402    -0.73090
O102        O  0.99112746  0.74288089  0.10927055    -0.74070
O103        O  0.07448682  0.74270729  0.11132930    -0.62690
O104        O  0.99125077  0.82661380  0.10704440    -0.71100
O105        O  0.99231049  0.82430158  0.01514491    -0.70650
O106        O  0.07708450  0.74210306  0.01945283    -0.61910
O107        O  0.99358296  0.74048703  0.01717578    -0.74410
O108        O  0.07548621  0.82582779  0.01727671    -0.73190
Cu109      Cu  0.03275710  0.78461714  0.11241849     1.04560
Cu110      Cu  0.03464883  0.78309375  0.01407366     1.04330
C111        C  0.08772238  0.83982686  0.06350212     0.93110
C112        C  0.97954283  0.72797089  0.06333769     0.92250
C113        C  0.08933883  0.72920774  0.06619847     0.84390
C114        C  0.97860072  0.83900591  0.06023272     0.90670
C115        C  0.20901467  0.95939233  0.06229011     0.02980
C116        C  0.23772860  0.95908429  0.10389627    -0.13170
C117        C  0.26625748  0.98876416  0.10608989     0.00480
C118        C  0.26635682  0.01871950  0.06607176    -0.11690
C119        C  0.23783074  0.01916187  0.02420702     0.02980
C120        C  0.20893772  0.98973444  0.02273867    -0.11110
H121        H  0.23780851  0.93578946  0.13467107     0.08570
H122        H  0.28872268  0.04146276  0.06726788     0.06100
H123        H  0.18664416  0.99028222  0.49069274     0.05950
C124        C  0.21054713  0.60818158  0.06227870     0.02980
C125        C  0.20889553  0.57695091  0.02378531    -0.13170
C126        C  0.23822324  0.54788085  0.02295623     0.00480
C127        C  0.26814915  0.54872620  0.06280843    -0.11690
C128        C  0.26922492  0.57894194  0.10267053     0.02980
C129        C  0.24086934  0.60888273  0.10170234    -0.11110
H130        H  0.18531110  0.57568222  0.49370177     0.08570
H131        H  0.29059823  0.52601343  0.06268520     0.06100
H132        H  0.24229778  0.63260676  0.13196343     0.05950
C133        C  0.85900585  0.96149307  0.06283981     0.02980
C134        C  0.82830624  0.96019237  0.10219436    -0.13170
C135        C  0.79883990  0.98908471  0.10241622     0.00480
C136        C  0.79882507  0.01829264  0.06133708    -0.11690
C137        C  0.82860194  0.01909974  0.02072329     0.02980
C138        C  0.85891226  0.99111241  0.02213556    -0.11110
H139        H  0.82758146  0.93703225  0.13312985     0.08570
H140        H  0.77575390  0.04036754  0.06104284     0.06100
H141        H  0.88226237  0.99223151  0.49123213     0.05950
C142        C  0.85749210  0.60911368  0.06177134     0.02980
C143        C  0.82870564  0.60883358  0.10387535    -0.13170
C144        C  0.80016823  0.57908854  0.10544519     0.00480
C145        C  0.80016312  0.54968684  0.06428533    -0.11690
C146        C  0.82876771  0.54979384  0.02194731     0.02980
C147        C  0.85764512  0.57925715  0.02115036    -0.11110
H148        H  0.82853767  0.63174006  0.13545339     0.08570
H149        H  0.77786497  0.52686495  0.06506866     0.06100
H150        H  0.88005384  0.57907126  0.48884215     0.05950
O151        O  0.07623943  0.32514118  0.38960390    -0.73090
O152        O  0.99254364  0.24115275  0.39104352    -0.74070
O153        O  0.99248750  0.32496883  0.38920141    -0.62690
O154        O  0.07601856  0.24165518  0.39113513    -0.71100
O155        O  0.07511665  0.24221111  0.48328361    -0.70650
O156        O  0.99187732  0.32657547  0.48113031    -0.61910
O157        O  0.99181819  0.24305393  0.48291725    -0.74410
O158        O  0.07555864  0.32588919  0.48182098    -0.73190
Cu159      Cu  0.03432259  0.28325191  0.38706269     1.04560
Cu160      Cu  0.03357236  0.28453383  0.48544194     1.04330
C161        C  0.08963958  0.33828421  0.43569123     0.93110
C162        C  0.97893173  0.22859284  0.43749271     0.92250
C163        C  0.97872173  0.33906471  0.43463507     0.84390
C164        C  0.08847583  0.22825371  0.43738041     0.90670
C165        C  0.20870667  0.46006745  0.43536049     0.02980
C166        C  0.23861028  0.46012057  0.39475745    -0.13170
C167        C  0.26801892  0.48904430  0.39580317     0.00480
C168        C  0.26787045  0.51757793  0.43811353    -0.11690
C169        C  0.23835474  0.51746084  0.47913687     0.02980
C170        C  0.20874546  0.48878153  0.47754941    -0.11110
H171        H  0.23886048  0.43785222  0.36229425     0.08570
H172        H  0.29062728  0.53994073  0.43899917     0.06100
H173        H  0.18580175  0.48877442  0.00910374     0.05950
C174        C  0.21112759  0.10978755  0.44161436     0.02980
C175        C  0.20995992  0.07980683  0.48170681    -0.13170
C176        C  0.23860481  0.05009428  0.48152682     0.00480
C177        C  0.26803499  0.04986637  0.44042707    -0.11690
C178        C  0.26905952  0.07936506  0.39977712     0.02980
C179        C  0.24073362  0.10938016  0.40061884    -0.11110
H180        H  0.18689995  0.07968094  0.01308496     0.08570
H181        H  0.29003784  0.02671359  0.43998614     0.06100
H182        H  0.24154173  0.13220652  0.36917578     0.05950
C183        C  0.85808530  0.10728313  0.43415816     0.02980
C184        C  0.85855578  0.07741735  0.47451946    -0.13170
C185        C  0.82833026  0.04946255  0.47709923     0.00480
C186        C  0.79806668  0.05040813  0.43781915    -0.11690
C187        C  0.79752535  0.07969906  0.39684863     0.02980
C188        C  0.82692216  0.10867443  0.39601032    -0.11110
H189        H  0.88226692  0.07613636  0.00442268     0.08570
H190        H  0.77511830  0.02824635  0.43889822     0.06100
H191        H  0.82580011  0.13188252  0.36520103     0.05950
C192        C  0.85615366  0.45868601  0.43925318     0.02980
C193        C  0.85755106  0.48960065  0.47826454    -0.13170
C194        C  0.82850201  0.51893068  0.47873557     0.00480
C195        C  0.79889846  0.51843716  0.43839002    -0.11690
C196        C  0.79789054  0.48838744  0.39821106     0.02980
C197        C  0.82616580  0.45832999  0.39924767    -0.11110
H198        H  0.88092082  0.49059677  0.00870652     0.08570
H199        H  0.77669730  0.54139298  0.43825572     0.06100
H200        H  0.82502796  0.43487033  0.36855599     0.05950
C201        C  0.12126523  0.36839393  0.43550751    -0.06270
C202        C  0.12299278  0.39543990  0.39135232    -0.17400
C203        C  0.15069124  0.42596638  0.39062152     0.10930
C204        C  0.17781250  0.42947204  0.43462562    -0.06190
C205        C  0.17642887  0.40238380  0.47846807    -0.17430
C206        C  0.14909798  0.37159681  0.47895240     0.10960
S207        S  0.14914240  0.46010303  0.33327128    -0.32390
S208        S  0.15309065  0.33619533  0.03442416    -0.32400
H209        H  0.14664073  0.30323027  0.99993086     0.28970
H210        H  0.16200273  0.49316366  0.36352778     0.28960
H211        H  0.10190300  0.39348972  0.35782069     0.19560
H212        H  0.19769203  0.40453681  0.01178069     0.19560
C213        C  0.18056338  0.14078934  0.44116414    -0.06270
C214        C  0.15594952  0.14328501  0.39476099    -0.17400
C215        C  0.12497464  0.17038178  0.39302941     0.10930
C216        C  0.11901158  0.19691638  0.43804968    -0.06190
C217        C  0.14375093  0.19419643  0.48460184    -0.17430
C218        C  0.17443856  0.16670678  0.48651090     0.10960
S219        S  0.09299584  0.16765282  0.33357984    -0.32390
S220        S  0.20542644  0.16705033  0.04719835    -0.32400
H221        H  0.24005830  0.15539225  0.01933879     0.28970
H222        H  0.05815895  0.17096187  0.36528119     0.28960
H223        H  0.16009662  0.12295676  0.36029555     0.19560
H224        H  0.13985202  0.21431725  0.01933576     0.19560
C225        C  0.88953000  0.13765524  0.43378406    -0.06270
C226        C  0.89834916  0.15680487  0.48397906    -0.17400
C227        C  0.92775298  0.18546811  0.48710676     0.10930
C228        C  0.94830823  0.19705637  0.43815558    -0.06190
C229        C  0.93923253  0.17780692  0.38778612    -0.17430
C230        C  0.91097662  0.14782850  0.38532028     0.10960
S231        S  0.93695901  0.20566377  0.05519569    -0.32390
S232        S  0.90531116  0.12251517  0.31969507    -0.32400
H233        H  0.89740209  0.08538520  0.34306108     0.28970
H234        H  0.97597117  0.19170485  0.05589560     0.28960
H235        H  0.88222945  0.14915995  0.02149617     0.19560
H236        H  0.95500727  0.18534616  0.34997317     0.19560
C237        C  0.94705415  0.36956196  0.43411386    -0.06270
C238        C  0.92652765  0.37743369  0.48405754    -0.17400
C239        C  0.89615425  0.40528176  0.48668147     0.10930
C240        C  0.88664764  0.42736081  0.43884400    -0.06190
C241        C  0.90704540  0.41977522  0.38903215    -0.17430
C242        C  0.93647781  0.39100986  0.38580619     0.10960
S243        S  0.86963562  0.40981430  0.05170334    -0.32390
S244        S  0.95963120  0.38421578  0.31886534    -0.32400
H245        H  0.94508430  0.34558943  0.31313682     0.28970
H246        H  0.83295789  0.41802602  0.02756508     0.28960
H247        H  0.93340804  0.36102258  0.02135618     0.19560
H248        H  0.90001372  0.43656775  0.35209748     0.19560
C249        C  0.17846201  0.92849262  0.06153807    -0.06270
C250        C  0.15321036  0.92546277  0.10763400    -0.17400
C251        C  0.12268061  0.89792023  0.10882895     0.10930
C252        C  0.11780602  0.87152397  0.06351617    -0.06190
C253        C  0.14313446  0.87484243  0.01720688    -0.17430
C254        C  0.17343698  0.90272615  0.01589050     0.10960
S255        S  0.08991940  0.89983878  0.16807808    -0.32390
S256        S  0.20544585  0.90296274  0.45568193    -0.32400
H257        H  0.23953002  0.91458573  0.48422895     0.28970
H258        H  0.05554280  0.89650187  0.13602993     0.28960
H259        H  0.15661180  0.94561354  0.14239479     0.19560
H260        H  0.14004151  0.85485984  0.48222743     0.19560
C261        C  0.89054704  0.93125180  0.06281548    -0.06270
C262        C  0.89860312  0.91088574  0.01314789    -0.17400
C263        C  0.92747718  0.88156072  0.01033476     0.10930
C264        C  0.94835669  0.87087379  0.05901677    -0.06190
C265        C  0.94016393  0.89151645  0.10874118    -0.17430
C266        C  0.91235369  0.92191808  0.11088870     0.10960
S267        S  0.93533897  0.85894586  0.44329101    -0.32390
S268        S  0.90756023  0.94870667  0.17560918    -0.32400
H269        H  0.89940625  0.98533839  0.15099543     0.28970
H270        H  0.97427991  0.87281561  0.43934552     0.28960
H271        H  0.88213018  0.91788072  0.47597402     0.19560
H272        H  0.95627019  0.88469742  0.14627037     0.19560
C273        C  0.18031663  0.63977381  0.06247803    -0.06270
C274        C  0.16130083  0.64903380  0.11284905    -0.17400
C275        C  0.13257551  0.67850509  0.11608112     0.10930
C276        C  0.12097319  0.69867665  0.06715402    -0.06190
C277        C  0.14019377  0.68919341  0.01671377    -0.17430
C278        C  0.17010959  0.66089737  0.01408346     0.10960
S279        S  0.11218777  0.68826321  0.18409502    -0.32390
S280        S  0.19525873  0.65474032  0.44823495    -0.32400
H281        H  0.23241835  0.64716416  0.47131113     0.28970
H282        H  0.12548250  0.72754831  0.18441659     0.28960
H283        H  0.16903173  0.63317693  0.15031888     0.19560
H284        H  0.13264198  0.70464487  0.47886926     0.19560
C285        C  0.88805707  0.64008352  0.06142112    -0.06270
C286        C  0.91334025  0.64274820  0.10713017    -0.17400
C287        C  0.94409876  0.67007524  0.10824443     0.10930
C288        C  0.94922644  0.69653038  0.06327029    -0.06190
C289        C  0.92387117  0.69365009  0.01740755    -0.17430
C290        C  0.89328124  0.66607050  0.01619886     0.10960
S291        S  0.97691217  0.66784693  0.16680748    -0.32390
S292        S  0.86115120  0.66652257  0.45671890    -0.32400
H293        H  0.82704811  0.65494732  0.48577621     0.28970
H294        H  0.01130383  0.67241831  0.13451050     0.28960
H295        H  0.90982230  0.62245563  0.14155758     0.19560
H296        H  0.92716030  0.71379244  0.48278565     0.19560
C297        C  0.61868261  0.87162974  0.18536541    -0.06270
C298        C  0.64568695  0.87218060  0.22947231    -0.17400
C299        C  0.67650506  0.89951043  0.23099721     0.10930
C300        C  0.68034733  0.92739761  0.18786167    -0.06190
C301        C  0.65352700  0.92700007  0.14388396    -0.17430
C302        C  0.62252173  0.90001644  0.14263041     0.10960
S303        S  0.71044529  0.89665686  0.28826924    -0.32390
S304        S  0.58701814  0.90566814  0.08810627    -0.32400
H305        H  0.55528326  0.90252793  0.12560041     0.28970
H306        H  0.74353301  0.91024722  0.25864091     0.28960
H307        H  0.64337269  0.85056389  0.26242471     0.19560
H308        H  0.65594213  0.94888910  0.11127455     0.19560
C309        C  0.44955374  0.69690031  0.18346153    -0.06270
C310        C  0.42439995  0.69400388  0.23001041    -0.17400
C311        C  0.39374955  0.66653723  0.23179339     0.10930
C312        C  0.38813320  0.64066573  0.18638958    -0.06190
C313        C  0.41311399  0.64335901  0.13991101    -0.17430
C314        C  0.44400363  0.67056645  0.13823940     0.10960
S315        S  0.36208458  0.66694837  0.29237609    -0.32390
S316        S  0.47637670  0.66830382  0.07859503    -0.32400
H317        H  0.51100155  0.67156935  0.11011705     0.28970
H318        H  0.32770436  0.65569566  0.26423750     0.28960
H319        H  0.42791937  0.71400906  0.26488009     0.19560
H320        H  0.40930717  0.62313284  0.10533216     0.19560
C321        C  0.62135782  0.69956713  0.18380173    -0.06270
C322        C  0.64060545  0.69151313  0.23425419    -0.17400
C323        C  0.67056720  0.66330150  0.23752242     0.10930
C324        C  0.68084760  0.64097946  0.18982067    -0.06190
C325        C  0.66165090  0.64871452  0.13953345    -0.17430
C326        C  0.63277861  0.67791582  0.13563701     0.10960
S327        S  0.69563260  0.65871800  0.30315657    -0.32390
S328        S  0.61162296  0.68510591  0.06791391    -0.32400
H329        H  0.62615756  0.72382811  0.06368681     0.28970
H330        H  0.73280455  0.65047035  0.27981677     0.28960
H331        H  0.63304152  0.70804333  0.27148062     0.19560
H332        H  0.66929621  0.63178710  0.10266000     0.19560
C333        C  0.38411889  0.92508783  0.18904391    -0.06270
C334        C  0.40415158  0.91797192  0.13885247    -0.17400
C335        C  0.43459633  0.89037878  0.13521205     0.10930
C336        C  0.44597022  0.86903390  0.18330773    -0.06190
C337        C  0.42529484  0.87594588  0.23341166    -0.17430
C338        C  0.39422367  0.90294667  0.23651791     0.10960
S339        S  0.45738390  0.88482451  0.06774420    -0.32390
S340        S  0.36746075  0.90617278  0.30149286    -0.32400
H341        H  0.33078341  0.91449667  0.27741646     0.28970
H342        H  0.49548687  0.89029772  0.08813497     0.28960
H343        H  0.39655821  0.93479083  0.10216496     0.19560
H344        H  0.43256467  0.85937406  0.27041541     0.19560
C345        C  0.44674519  0.37027160  0.30756896    -0.06270
C346        C  0.44130190  0.39267247  0.35650841    -0.17400
C347        C  0.41410813  0.42365170  0.35919143     0.10930
C348        C  0.39070645  0.43218436  0.31241218    -0.06190
C349        C  0.39624560  0.41031957  0.26341291    -0.17430
C350        C  0.42358052  0.37958198  0.26043934     0.10960
S351        S  0.41197305  0.45217614  0.42266417    -0.32390
S352        S  0.42560418  0.35257852  0.19593224    -0.32400
H353        H  0.42209964  0.31624083  0.22297685     0.28970
H354        H  0.40240327  0.48811332  0.39707545     0.28960
H355        H  0.45909315  0.38675558  0.39279440     0.19560
H356        H  0.37820606  0.41653808  0.22743448     0.19560
C357        C  0.61997773  0.19870711  0.30924471    -0.06270
C358        C  0.62270372  0.17383485  0.35580237    -0.17400
C359        C  0.65034732  0.14327360  0.35782937     0.10930
C360        C  0.67651720  0.13745583  0.31266137    -0.06190
C361        C  0.67399882  0.16217879  0.26620953    -0.17430
C362        C  0.64667115  0.19299668  0.26432383     0.10960
S363        S  0.64984834  0.11200492  0.41841842    -0.32390
S364        S  0.64928133  0.22515485  0.20485828    -0.32400
H365        H  0.64544022  0.25997843  0.23646915     0.28970
H366        H  0.66171356  0.07745550  0.39048917     0.28960
H367        H  0.60246615  0.17752985  0.39046993     0.19560
H368        H  0.69445168  0.15823155  0.23182055     0.19560
C369        C  0.61838239  0.37053622  0.30757743    -0.06270
C370        C  0.62574333  0.39078228  0.35772895    -0.17400
C371        C  0.65389584  0.42078380  0.36094179     0.10930
C372        C  0.67679652  0.43017372  0.31351897    -0.06190
C373        C  0.66978614  0.40998005  0.26353633    -0.17430
C374        C  0.64073609  0.38094567  0.25969687     0.10960
S375        S  0.65771534  0.44703973  0.42612132    -0.32390
S376        S  0.63469621  0.35816525  0.19251068    -0.32400
H377        H  0.59623533  0.37290266  0.18649671     0.28970
H378        H  0.66633018  0.48383410  0.40220355     0.28960
H379        H  0.60871327  0.38397831  0.39473494     0.19560
H380        H  0.68719169  0.41693785  0.22690087     0.19560
C381        C  0.39108524  0.13520705  0.31402808    -0.06270
C382        C  0.39653178  0.15671474  0.26493345    -0.17400
C383        C  0.42397230  0.18726333  0.26168327     0.10930
C384        C  0.44731556  0.19676912  0.30865145    -0.06190
C385        C  0.44200421  0.17470284  0.35766599    -0.17430
C386        C  0.41472383  0.14387647  0.36060389     0.10960
S387        S  0.42584544  0.21381362  0.19705736    -0.32390
S388        S  0.41279276  0.11571161  0.42411804    -0.32400
H389        H  0.40303880  0.07968160  0.39860581     0.28970
H390        H  0.42226622  0.25031987  0.22401932     0.28960
H391        H  0.37831377  0.15040168  0.22911519     0.19560
H392        H  0.45994693  0.18077536  0.39380178     0.19560
C393        C  0.35966862  0.10502430  0.81536692     0.02980
C394        C  0.32951108  0.10685326  0.85555820    -0.13170
C395        C  0.29956139  0.07849432  0.85610423     0.00480
C396        C  0.29893468  0.04902047  0.81514084    -0.11690
C397        C  0.32836697  0.04756660  0.77410872     0.02980
C398        C  0.35886855  0.07525969  0.77466702    -0.11110
H399        H  0.32948964  0.13010321  0.88660960     0.08570
H400        H  0.27560130  0.02725245  0.81520825     0.06100
H401        H  0.38178402  0.07384208  0.74312123     0.05950
O402        O  0.49155636  0.24134615  0.76217138    -0.73090
O403        O  0.57469477  0.32511102  0.76183599    -0.74070
O404        O  0.57488955  0.24159266  0.76250628    -0.62690
O405        O  0.49131647  0.32532559  0.76155490    -0.71100
O406        O  0.49028001  0.32558852  0.85358761    -0.70650
O407        O  0.57481625  0.24260893  0.85464579    -0.61910
O408        O  0.57394077  0.32633842  0.85376590    -0.74410
O409        O  0.49097362  0.24179158  0.85421537    -0.73190
Cu410      Cu  0.53309890  0.28330948  0.75889567     1.04560
Cu411      Cu  0.53246221  0.28407456  0.85725842     1.04330
C412        C  0.47789449  0.22824554  0.80814551     0.93110
C413        C  0.58764777  0.33913846  0.80752351     0.92250
C414        C  0.58856161  0.22920537  0.80865268     0.84390
C415        C  0.47736578  0.33875213  0.80734843     0.90670
C416        C  0.70761930  0.10694966  0.81328447     0.02980
C417        C  0.70813767  0.07721026  0.77252533    -0.13170
C418        C  0.73794672  0.04865632  0.77211321     0.00480
C419        C  0.76716092  0.04962513  0.81296976    -0.11690
C420        C  0.76687003  0.07920283  0.85387683     0.02980
C421        C  0.73734524  0.10805992  0.85360110    -0.11110
H422        H  0.68545524  0.07638393  0.74102862     0.08570
H423        H  0.79011066  0.02741534  0.81290751     0.06100
H424        H  0.73734896  0.13116108  0.88487772     0.05950
C425        C  0.35951301  0.46267531  0.81337928     0.02980
C426        C  0.35946337  0.49246906  0.77301545    -0.13170
C427        C  0.32918008  0.52044843  0.77189741     0.00480
C428        C  0.29909714  0.51914039  0.81203246    -0.11690
C429        C  0.29899141  0.48963676  0.85273771     0.02980
C430        C  0.32885127  0.46111830  0.85280474    -0.11110
H431        H  0.38278677  0.49364388  0.74206813     0.08570
H432        H  0.27587241  0.54105246  0.81164893     0.06100
H433        H  0.32833633  0.43791508  0.88368770     0.05950
C434        C  0.70809095  0.46064789  0.81434165     0.02980
C435        C  0.70825528  0.49066616  0.77419645    -0.13170
C436        C  0.73811922  0.51907451  0.77357489     0.00480
C437        C  0.76740708  0.51825436  0.81434399    -0.11690
C438        C  0.76744244  0.48861460  0.85484655     0.02980
C439        C  0.73834795  0.45934375  0.85391715    -0.11110
H440        H  0.68529709  0.49178101  0.74312989     0.08570
H441        H  0.79018512  0.54060195  0.81448124     0.06100
H442        H  0.73898388  0.43591665  0.88443587     0.05950
C443        C  0.35388437  0.95655779  0.69041742     0.02980
C444        C  0.35576300  0.98702930  0.72999907    -0.13170
C445        C  0.32733439  0.01693155  0.73076442     0.00480
C446        C  0.29791609  0.01749995  0.69018934    -0.11690
C447        C  0.29650591  0.98786107  0.64952230     0.02980
C448        C  0.32408227  0.95718648  0.65025932    -0.11110
H449        H  0.37912217  0.98735001  0.76048725     0.08570
H450        H  0.27622717  0.04094269  0.69023312     0.06100
H451        H  0.32260524  0.93405462  0.61909867     0.05950
O452        O  0.57519555  0.82712070  0.63840955    -0.73090
O453        O  0.49310925  0.74205298  0.63732946    -0.74070
O454        O  0.49160495  0.82532729  0.63738081    -0.62690
O455        O  0.57646271  0.74350220  0.63799044    -0.71100
O456        O  0.57612140  0.74328733  0.72993581    -0.70650
O457        O  0.49107861  0.82585513  0.72937449    -0.61910
O458        O  0.49259929  0.74197775  0.72947222    -0.74410
O459        O  0.57471765  0.82697372  0.73063097    -0.73190
Cu460      Cu  0.53414270  0.78451740  0.63464999     1.04560
Cu461      Cu  0.53357588  0.78454300  0.73306798     1.04330
C462        C  0.58790168  0.84063190  0.68465995     0.93110
C463        C  0.48003467  0.72826526  0.68325652     0.92250
C464        C  0.47782116  0.83879359  0.68315268     0.84390
C465        C  0.58981173  0.73016517  0.68372076     0.90670
C466        C  0.71080924  0.95832529  0.68837008     0.02980
C467        C  0.71006716  0.98799297  0.72919217    -0.13170
C468        C  0.73858614  0.01780163  0.72891004     0.00480
C469        C  0.76763002  0.01816944  0.68719179    -0.11690
C470        C  0.76823685  0.98881580  0.64595126     0.02980
C471        C  0.73989221  0.95890307  0.64675179    -0.11110
H472        H  0.68739697  0.98783097  0.76113844     0.08570
H473        H  0.78969347  0.04122287  0.68682179     0.06100
H474        H  0.74038343  0.93616737  0.61493189     0.05950
C475        C  0.35763131  0.60962738  0.68692091     0.02980
C476        C  0.35802044  0.58017299  0.72778639    -0.13170
C477        C  0.32897054  0.55089623  0.72846024     0.00480
C478        C  0.30001645  0.55044290  0.68719719    -0.11690
C479        C  0.29987660  0.57930963  0.64561040     0.02980
C480        C  0.32853382  0.60897781  0.64577780    -0.11110
H481        H  0.38071414  0.58021739  0.75928074     0.08570
H482        H  0.27765345  0.52767849  0.68744076     0.06100
H483        H  0.32819793  0.63151780  0.61391633     0.05950
C484        C  0.71126539  0.60958406  0.69055164     0.02980
C485        C  0.74147856  0.60954263  0.65038972    -0.13170
C486        C  0.76966620  0.57942967  0.64923214     0.00480
C487        C  0.76851290  0.54977359  0.68965792    -0.11690
C488        C  0.73872601  0.54970646  0.73033048     0.02980
C489        C  0.70961336  0.57899734  0.72977561    -0.11110
H490        H  0.74285931  0.63276236  0.61955820     0.08570
H491        H  0.79068452  0.52679003  0.68942380     0.06100
H492        H  0.68601010  0.57821098  0.76028728     0.05950
O493        O  0.07448135  0.82621437  0.60941403    -0.73090
O494        O  0.99112745  0.74288088  0.60927057    -0.74070
O495        O  0.07448681  0.74270729  0.61132932    -0.62690
O496        O  0.99125077  0.82661379  0.60704440    -0.71100
O497        O  0.99231049  0.82430158  0.51514492    -0.70650
O498        O  0.07708449  0.74210305  0.51945285    -0.61910
O499        O  0.99358295  0.74048702  0.51717580    -0.74410
O500        O  0.07548620  0.82582779  0.51727672    -0.73190
Cu501      Cu  0.03275709  0.78461714  0.61241850     1.04560
Cu502      Cu  0.03464883  0.78309374  0.51407367     1.04330
C503        C  0.08772237  0.83982685  0.56350213     0.93110
C504        C  0.97954282  0.72797088  0.56333770     0.92250
C505        C  0.08933883  0.72920773  0.56619848     0.84390
C506        C  0.97860072  0.83900591  0.56023273     0.90670
C507        C  0.20901466  0.95939232  0.56229011     0.02980
C508        C  0.23772859  0.95908429  0.60389627    -0.13170
C509        C  0.26625747  0.98876415  0.60608988     0.00480
C510        C  0.26635681  0.01871949  0.56607175    -0.11690
C511        C  0.23783073  0.01916187  0.52420702     0.02980
C512        C  0.20893771  0.98973444  0.52273867    -0.11110
H513        H  0.23780851  0.93578945  0.63467107     0.08570
H514        H  0.28872267  0.04146275  0.56726787     0.06100
H515        H  0.18664418  0.99028223  0.99069274     0.05950
C516        C  0.21054712  0.60818157  0.56227871     0.02980
C517        C  0.20889552  0.57695090  0.52378533    -0.13170
C518        C  0.23822324  0.54788084  0.52295624     0.00480
C519        C  0.26814915  0.54872620  0.56280844    -0.11690
C520        C  0.26922492  0.57894194  0.60267053     0.02980
C521        C  0.24086933  0.60888273  0.60170235    -0.11110
H522        H  0.18531112  0.57568224  0.99370175     0.08570
H523        H  0.29059823  0.52601342  0.56268520     0.06100
H524        H  0.24229778  0.63260676  0.63196344     0.05950
C525        C  0.85900584  0.96149307  0.56283980     0.02980
C526        C  0.82830623  0.96019237  0.60219436    -0.13170
C527        C  0.79883990  0.98908470  0.60241621     0.00480
C528        C  0.79882506  0.01829263  0.56133707    -0.11690
C529        C  0.82860193  0.01909973  0.52072328     0.02980
C530        C  0.85891225  0.99111240  0.52213555    -0.11110
H531        H  0.82758146  0.93703224  0.63312985     0.08570
H532        H  0.77575390  0.04036754  0.56104283     0.06100
H533        H  0.88226238  0.99223152  0.99123214     0.05950
C534        C  0.85749208  0.60911368  0.56177135     0.02980
C535        C  0.82870562  0.60883358  0.60387536    -0.13170
C536        C  0.80016821  0.57908854  0.60544520     0.00480
C537        C  0.80016311  0.54968684  0.56428534    -0.11690
C538        C  0.82876769  0.54979384  0.52194731     0.02980
C539        C  0.85764510  0.57925715  0.52115036    -0.11110
H540        H  0.82853766  0.63174005  0.63545340     0.08570
H541        H  0.77786496  0.52686495  0.56506866     0.06100
H542        H  0.88005386  0.57907125  0.98884214     0.05950
O543        O  0.07623945  0.32514118  0.88960389    -0.73090
O544        O  0.99254366  0.24115275  0.89104351    -0.74070
O545        O  0.99248751  0.32496883  0.88920141    -0.62690
O546        O  0.07601857  0.24165518  0.89113512    -0.71100
O547        O  0.07511666  0.24221111  0.98328360    -0.70650
O548        O  0.99187734  0.32657546  0.98113031    -0.61910
O549        O  0.99181821  0.24305393  0.98291724    -0.74410
O550        O  0.07555865  0.32588919  0.98182097    -0.73190
Cu551      Cu  0.03432260  0.28325191  0.88706268     1.04560
Cu552      Cu  0.03357237  0.28453383  0.98544194     1.04330
C553        C  0.08963959  0.33828421  0.93569122     0.93110
C554        C  0.97893174  0.22859284  0.93749270     0.92250
C555        C  0.97872174  0.33906471  0.93463507     0.84390
C556        C  0.08847584  0.22825371  0.93738040     0.90670
C557        C  0.20870668  0.46006746  0.93536049     0.02980
C558        C  0.23861028  0.46012057  0.89475745    -0.13170
C559        C  0.26801893  0.48904430  0.89580317     0.00480
C560        C  0.26787046  0.51757793  0.93811353    -0.11690
C561        C  0.23835475  0.51746085  0.97913686     0.02980
C562        C  0.20874547  0.48878154  0.97754941    -0.11110
H563        H  0.23886048  0.43785222  0.86229425     0.08570
H564        H  0.29062729  0.53994073  0.93899916     0.06100
H565        H  0.18580175  0.48877441  0.50910374     0.05950
C566        C  0.21112760  0.10978754  0.94161435     0.02980
C567        C  0.20995994  0.07980683  0.98170681    -0.13170
C568        C  0.23860482  0.05009428  0.98152682     0.00480
C569        C  0.26803500  0.04986637  0.94042706    -0.11690
C570        C  0.26905953  0.07936506  0.89977711     0.02980
C571        C  0.24073363  0.10938016  0.90061882    -0.11110
H572        H  0.18689993  0.07968094  0.51308496     0.08570
H573        H  0.29003785  0.02671359  0.93998614     0.06100
H574        H  0.24154173  0.13220651  0.86917577     0.05950
C575        C  0.85808531  0.10728313  0.93415816     0.02980
C576        C  0.85855579  0.07741735  0.97451947    -0.13170
C577        C  0.82833027  0.04946255  0.97709923     0.00480
C578        C  0.79806669  0.05040814  0.93781915    -0.11690
C579        C  0.79752536  0.07969906  0.89684863     0.02980
C580        C  0.82692218  0.10867442  0.89601031    -0.11110
H581        H  0.88226692  0.07613635  0.50442267     0.08570
H582        H  0.77511831  0.02824636  0.93889823     0.06100
H583        H  0.82580013  0.13188251  0.86520101     0.05950
C584        C  0.85615367  0.45868601  0.93925318     0.02980
C585        C  0.85755107  0.48960065  0.97826454    -0.13170
C586        C  0.82850202  0.51893067  0.97873557     0.00480
C587        C  0.79889847  0.51843715  0.93839003    -0.11690
C588        C  0.79789055  0.48838743  0.89821107     0.02980
C589        C  0.82616581  0.45832999  0.89924768    -0.11110
H590        H  0.88092081  0.49059677  0.50870653     0.08570
H591        H  0.77669731  0.54139298  0.93825572     0.06100
H592        H  0.82502797  0.43487032  0.86855600     0.05950
C593        C  0.12126524  0.36839393  0.93550750    -0.06270
C594        C  0.12299279  0.39543990  0.89135232    -0.17400
C595        C  0.15069125  0.42596638  0.89062152     0.10930
C596        C  0.17781251  0.42947204  0.93462562    -0.06190
C597        C  0.17642887  0.40238380  0.97846807    -0.17430
C598        C  0.14909799  0.37159681  0.97895240     0.10960
S599        S  0.14914241  0.46010304  0.83327128    -0.32390
S600        S  0.15309064  0.33619533  0.53442417    -0.32400
H601        H  0.14664072  0.30323027  0.49993087     0.28970
H602        H  0.16200273  0.49316366  0.86352778     0.28960
H603        H  0.10190301  0.39348973  0.85782069     0.19560
H604        H  0.19769202  0.40453681  0.51178069     0.19560
C605        C  0.18056339  0.14078934  0.94116413    -0.06270
C606        C  0.15594953  0.14328501  0.89476099    -0.17400
C607        C  0.12497464  0.17038178  0.89302940     0.10930
C608        C  0.11901159  0.19691638  0.93804967    -0.06190
C609        C  0.14375095  0.19419644  0.98460183    -0.17430
C610        C  0.17443858  0.16670679  0.98651088     0.10960
S611        S  0.09299584  0.16765280  0.83357985    -0.32390
S612        S  0.20542641  0.16705032  0.54719838    -0.32400
H613        H  0.24005828  0.15539224  0.51933882     0.28970
H614        H  0.05815895  0.17096187  0.86528120     0.28960
H615        H  0.16009662  0.12295674  0.86029555     0.19560
H616        H  0.13985200  0.21431724  0.51933578     0.19560
C617        C  0.88953001  0.13765524  0.93378405    -0.06270
C618        C  0.89834916  0.15680489  0.98397904    -0.17400
C619        C  0.92775297  0.18546813  0.98710675     0.10930
C620        C  0.94830823  0.19705637  0.93815557    -0.06190
C621        C  0.93923256  0.17780690  0.88778612    -0.17430
C622        C  0.91097665  0.14782848  0.88532028     0.10960
S623        S  0.93695905  0.20566371  0.55519572    -0.32390
S624        S  0.90531121  0.12251513  0.81969508    -0.32400
H625        H  0.89740212  0.08538516  0.84306112     0.28970
H626        H  0.97597122  0.19170481  0.55589557     0.28960
H627        H  0.88222947  0.14915991  0.52149618     0.19560
H628        H  0.95500731  0.18534612  0.84997318     0.19560
C629        C  0.94705416  0.36956195  0.93411385    -0.06270
C630        C  0.92652766  0.37743369  0.98405754    -0.17400
C631        C  0.89615426  0.40528176  0.98668147     0.10930
C632        C  0.88664765  0.42736081  0.93884400    -0.06190
C633        C  0.90704540  0.41977522  0.88903215    -0.17430
C634        C  0.93647782  0.39100985  0.88580619     0.10960
S635        S  0.86963560  0.40981430  0.55170334    -0.32390
S636        S  0.95963120  0.38421577  0.81886533    -0.32400
H637        H  0.94508430  0.34558942  0.81313682     0.28970
H638        H  0.83295787  0.41802602  0.52756507     0.28960
H639        H  0.93340802  0.36102258  0.52135618     0.19560
H640        H  0.90001372  0.43656774  0.85209748     0.19560
C641        C  0.17846200  0.92849262  0.56153808    -0.06270
C642        C  0.15321035  0.92546277  0.60763400    -0.17400
C643        C  0.12268060  0.89792022  0.60882895     0.10930
C644        C  0.11780602  0.87152396  0.56351617    -0.06190
C645        C  0.14313445  0.87484243  0.51720689    -0.17430
C646        C  0.17343697  0.90272614  0.51589050     0.10960
S647        S  0.08991940  0.89983878  0.66807809    -0.32390
S648        S  0.20544586  0.90296275  0.95568192    -0.32400
H649        H  0.23953003  0.91458574  0.98422895     0.28970
H650        H  0.05554280  0.89650187  0.63602994     0.28960
H651        H  0.15661179  0.94561354  0.64239479     0.19560
H652        H  0.14004152  0.85485984  0.98222742     0.19560
C653        C  0.89054704  0.93125179  0.56281548    -0.06270
C654        C  0.89860311  0.91088572  0.51314789    -0.17400
C655        C  0.92747717  0.88156070  0.51033477     0.10930
C656        C  0.94835669  0.87087378  0.55901677    -0.06190
C657        C  0.94016393  0.89151645  0.60874117    -0.17430
C658        C  0.91235369  0.92191808  0.61088869     0.10960
S659        S  0.93533900  0.85894590  0.94329100    -0.32390
S660        S  0.90756024  0.94870669  0.67560916    -0.32400
H661        H  0.89940625  0.98533840  0.65099540     0.28970
H662        H  0.97427994  0.87281564  0.93934554     0.28960
H663        H  0.88213020  0.91788074  0.97597402     0.19560
H664        H  0.95627020  0.88469743  0.64627036     0.19560
C665        C  0.18031663  0.63977380  0.56247805    -0.06270
C666        C  0.16130083  0.64903380  0.61284906    -0.17400
C667        C  0.13257551  0.67850510  0.61608114     0.10930
C668        C  0.12097318  0.69867664  0.56715404    -0.06190
C669        C  0.14019375  0.68919339  0.51671378    -0.17430
C670        C  0.17010958  0.66089735  0.51408347     0.10960
S671        S  0.11218780  0.68826323  0.68409504    -0.32390
S672        S  0.19525876  0.65474035  0.94823495    -0.32400
H673        H  0.23241838  0.64716418  0.97131114     0.28970
H674        H  0.12548252  0.72754833  0.68441659     0.28960
H675        H  0.16903174  0.63317694  0.65031890     0.19560
H676        H  0.13264201  0.70464490  0.97886925     0.19560
C677        C  0.88805706  0.64008352  0.56142113    -0.06270
C678        C  0.91334023  0.64274820  0.60713019    -0.17400
C679        C  0.94409874  0.67007524  0.60824445     0.10930
C680        C  0.94922642  0.69653038  0.56327031    -0.06190
C681        C  0.92387116  0.69365009  0.51740756    -0.17430
C682        C  0.89328123  0.66607050  0.51619887     0.10960
S683        S  0.97691215  0.66784693  0.66680750    -0.32390
S684        S  0.86115120  0.66652257  0.95671889    -0.32400
H685        H  0.82704811  0.65494732  0.98577621     0.28970
H686        H  0.01130381  0.67241831  0.63451053     0.28960
H687        H  0.90982228  0.62245563  0.64155760     0.19560
H688        H  0.92716030  0.71379244  0.98278564     0.19560
C689        C  0.61868261  0.87162974  0.68536543    -0.06270
C690        C  0.64568695  0.87218059  0.72947232    -0.17400
C691        C  0.67650506  0.89951043  0.73099722     0.10930
C692        C  0.68034733  0.92739761  0.68786168    -0.06190
C693        C  0.65352700  0.92700007  0.64388397    -0.17430
C694        C  0.62252173  0.90001644  0.64263042     0.10960
S695        S  0.71044529  0.89665686  0.78826926    -0.32390
S696        S  0.58701814  0.90566813  0.58810628    -0.32400
H697        H  0.55528326  0.90252792  0.62560041     0.28970
H698        H  0.74353301  0.91024721  0.75864093     0.28960
H699        H  0.64337268  0.85056389  0.76242473     0.19560
H700        H  0.65594214  0.94888909  0.61127456     0.19560
C701        C  0.44955374  0.69690031  0.68346153    -0.06270
C702        C  0.42439995  0.69400387  0.73001042    -0.17400
C703        C  0.39374955  0.66653722  0.73179340     0.10930
C704        C  0.38813320  0.64066573  0.68638958    -0.06190
C705        C  0.41311398  0.64335901  0.63991101    -0.17430
C706        C  0.44400362  0.67056645  0.63823940     0.10960
S707        S  0.36208458  0.66694836  0.79237610    -0.32390
S708        S  0.47637670  0.66830382  0.57859503    -0.32400
H709        H  0.51100154  0.67156935  0.61011705     0.28970
H710        H  0.32770437  0.65569565  0.76423751     0.28960
H711        H  0.42791937  0.71400905  0.76488010     0.19560
H712        H  0.40930716  0.62313284  0.60533216     0.19560
C713        C  0.62135781  0.69956712  0.68380175    -0.06270
C714        C  0.64060545  0.69151312  0.73425420    -0.17400
C715        C  0.67056719  0.66330149  0.73752243     0.10930
C716        C  0.68084759  0.64097944  0.68982069    -0.06190
C717        C  0.66165089  0.64871451  0.63953347    -0.17430
C718        C  0.63277860  0.67791580  0.63563703     0.10960
S719        S  0.69563259  0.65871798  0.80315659    -0.32390
S720        S  0.61162295  0.68510590  0.56791393    -0.32400
H721        H  0.62615755  0.72382810  0.56368682     0.28970
H722        H  0.73280454  0.65047033  0.77981679     0.28960
H723        H  0.63304152  0.70804332  0.77148064     0.19560
H724        H  0.66929620  0.63178708  0.60266002     0.19560
C725        C  0.38411888  0.92508782  0.68904390    -0.06270
C726        C  0.40415157  0.91797191  0.63885247    -0.17400
C727        C  0.43459633  0.89037878  0.63521205     0.10930
C728        C  0.44597022  0.86903390  0.68330773    -0.06190
C729        C  0.42529483  0.87594587  0.73341166    -0.17430
C730        C  0.39422366  0.90294666  0.73651791     0.10960
S731        S  0.45738390  0.88482450  0.56774420    -0.32390
S732        S  0.36746074  0.90617278  0.80149285    -0.32400
H733        H  0.33078340  0.91449666  0.77741645     0.28970
H734        H  0.49548687  0.89029772  0.58813498     0.28960
H735        H  0.39655821  0.93479082  0.60216495     0.19560
H736        H  0.43256467  0.85937405  0.77041541     0.19560
C737        C  0.44674520  0.37027159  0.80756896    -0.06270
C738        C  0.44130190  0.39267246  0.85650842    -0.17400
C739        C  0.41410813  0.42365169  0.85919143     0.10930
C740        C  0.39070645  0.43218435  0.81241219    -0.06190
C741        C  0.39624561  0.41031957  0.76341291    -0.17430
C742        C  0.42358053  0.37958198  0.76043934     0.10960
S743        S  0.41197305  0.45217612  0.92266418    -0.32390
S744        S  0.42560421  0.35257853  0.69593223    -0.32400
H745        H  0.42209966  0.31624083  0.72297683     0.28970
H746        H  0.40240328  0.48811331  0.89707546     0.28960
H747        H  0.45909315  0.38675556  0.89279441     0.19560
H748        H  0.37820608  0.41653809  0.72743448     0.19560
C749        C  0.61997773  0.19870710  0.80924472    -0.06270
C750        C  0.62270373  0.17383484  0.85580237    -0.17400
C751        C  0.65034733  0.14327359  0.85782938     0.10930
C752        C  0.67651722  0.13745583  0.81266138    -0.06190
C753        C  0.67399883  0.16217878  0.76620953    -0.17430
C754        C  0.64667116  0.19299667  0.76432384     0.10960
S755        S  0.64984836  0.11200492  0.91841844    -0.32390
S756        S  0.64928133  0.22515483  0.70485827    -0.32400
H757        H  0.64544022  0.25997842  0.73646915     0.28970
H758        H  0.66171358  0.07745550  0.89048919     0.28960
H759        H  0.60246616  0.17752984  0.89046994     0.19560
H760        H  0.69445168  0.15823154  0.73182055     0.19560
C761        C  0.61838240  0.37053620  0.80757744    -0.06270
C762        C  0.62574333  0.39078228  0.85772896    -0.17400
C763        C  0.65389584  0.42078379  0.86094179     0.10930
C764        C  0.67679652  0.43017370  0.81351898    -0.06190
C765        C  0.66978616  0.40998002  0.76353635    -0.17430
C766        C  0.64073611  0.38094564  0.75969688     0.10960
S767        S  0.65771533  0.44703973  0.92612132    -0.32390
S768        S  0.63469625  0.35816520  0.69251070    -0.32400
H769        H  0.59623537  0.37290262  0.68649670     0.28970
H770        H  0.66633018  0.48383410  0.90220354     0.28960
H771        H  0.60871326  0.38397831  0.89473495     0.19560
H772        H  0.68719172  0.41693782  0.72690089     0.19560
C773        C  0.39108525  0.13520703  0.81402808    -0.06270
C774        C  0.39653178  0.15671473  0.76493345    -0.17400
C775        C  0.42397230  0.18726333  0.76168327     0.10930
C776        C  0.44731556  0.19676910  0.80865145    -0.06190
C777        C  0.44200422  0.17470281  0.85766599    -0.17430
C778        C  0.41472385  0.14387644  0.86060388     0.10960
S779        S  0.42584542  0.21381364  0.69705738    -0.32390
S780        S  0.41279279  0.11571157  0.92411802    -0.32400
H781        H  0.40303882  0.07968157  0.89860578     0.28970
H782        H  0.42226621  0.25031988  0.72401937     0.28960
H783        H  0.37831376  0.15040168  0.72911519     0.19560
H784        H  0.45994695  0.18077533  0.89380177     0.19560
loop_ 
_geom_bond_atom_site_label_1 
_geom_bond_atom_site_label_2 
_geom_bond_distance 
_geom_bond_site_symmetry_2 
_ccdc_geom_bond_type 
C1            C2   1.405       .  A
C1            C6   1.404       .  A
C1          C381   1.481       .  S
C2            C3   1.402       .  A
C2            H7   1.084       .  S
C3            C4   1.401       .  A
C3          C178   1.470       .  S
C4            C5   1.401       .  A
C4            H8   1.084       .  S
C5            C6   1.400       .  A
C5           C53   1.469       .  S
C6            H9   1.084       .  S
O10         Cu18   2.008       .  S
O10          C20   1.277       .  A
O11         Cu18   2.005       .  S
O11          C21   1.276       .  A
O12         Cu18   2.007       .  S
O12          C22   1.277       .  A
O13         Cu18   2.012       .  S
O13          C23   1.277       .  A
O14         Cu19   2.012       .  S
O14          C23   1.279       .  A
O15         Cu19   2.013       .  S
O15          C22   1.279       .  A
O16         Cu19   2.014       .  S
O16          C21   1.279       .  A
O17         Cu19   2.014       .  S
O17          C20   1.279       .  A
Cu18        Cu19   2.363       .  S
C20         C384   1.491       .  S
C21         C369   1.493       .  S
C22         C357   1.487       .  S
C23         C345   1.492       .  S
C24          C25   1.404       .  A
C24          C29   1.405       .  A
C24         C360   1.479       .  S
C25          C26   1.401       .  A
C25          H30   1.084       .  S
C26          C27   1.401       .  A
C26          C76   1.472       .  S
C27          C28   1.402       .  A
C27          H31   1.084       .  S
C28          C29   1.402       .  A
C28         C187   1.472       .  S
C29          H32   1.084       .  S
C33          C34   1.403       .  A
C33          C38   1.405       .  A
C33         C348   1.481       .  S
C34          C35   1.400       .  A
C34          H39   1.084       .  S
C35          C36   1.402       .  A
C35          C85   1.471       .  S
C36          C37   1.402       .  A
C36          H40   1.084       .  S
C37          C38   1.402       .  A
C37         C167   1.471       .  S
C38          H41   1.084       .  S
C42          C43   1.405       .  A
C42          C47   1.406       .  A
C42         C372   1.484       .  S
C43          C44   1.401       .  A
C43          H48   1.084       .  S
C44          C45   1.401       .  A
C44          C96   1.472       .  S
C45          C46   1.402       .  A
C45          H49   1.084       .  S
C46          C47   1.403       .  A
C46         C196   1.473       .  S
C47          H50   1.084       .  S
C51          C52   1.404       .  A
C51          C56   1.404       .  A
C51         C333   1.482       .  S
C52          C53   1.401   1_565  A
C52          H57   1.084       .  S
C53          C54   1.401       .  A
C54          C55   1.401   1_545  A
C54          H58   1.084       .  S
C55          C56   1.401       .  A
C55         C117   1.470       .  S
C56          H59   1.084       .  S
O60         Cu68   2.012       .  S
O60          C70   1.278       .  A
O61         Cu68   2.007       .  S
O61          C71   1.277       .  A
O62         Cu68   2.002       .  S
O62          C72   1.275       .  A
O63         Cu68   2.003       .  S
O63          C73   1.276       .  A
O64         Cu69   2.013       .  S
O64          C73   1.279       .  A
O65         Cu69   2.015       .  S
O65          C72   1.280       .  A
O66         Cu69   2.010       .  S
O66          C71   1.278       .  A
O67         Cu69   2.009       .  S
O67          C70   1.278       .  A
Cu68        Cu69   2.364       .  S
C70         C297   1.484       .  S
C71         C309   1.486       .  S
C72         C336   1.491       .  S
C73         C321   1.492       .  S
C74          C75   1.403       .  A
C74          C79   1.402       .  A
C74         C300   1.475       .  S
C75          C76   1.402   1_565  A
C75          H80   1.084       .  S
C76          C77   1.402       .  A
C77          C78   1.402   1_545  A
C77          H81   1.084       .  S
C78          C79   1.400       .  A
C78         C135   1.470       .  S
C79          H82   1.084       .  S
C83          C84   1.404       .  A
C83          C88   1.403       .  A
C83         C312   1.479       .  S
C84          C85   1.401       .  A
C84          H89   1.084       .  S
C85          C86   1.401       .  A
C86          C87   1.402       .  A
C86          H90   1.084       .  S
C87          C88   1.402       .  A
C87         C128   1.471       .  S
C88          H91   1.084       .  S
C92          C93   1.404       .  A
C92          C97   1.405       .  A
C92         C324   1.484       .  S
C93          C94   1.400       .  A
C93          H98   1.084       .  S
C94          C95   1.401       .  A
C94         C144   1.472       .  S
C95          C96   1.402       .  A
C95          H99   1.084       .  S
C96          C97   1.402       .  A
C97         H100   1.084       .  S
O101       Cu109   2.003       .  S
O101        C111   1.277       .  A
O102       Cu109   2.005   1_655  S
O102        C112   1.277       .  A
O103       Cu109   2.008       .  S
O103        C113   1.276       .  A
O104       Cu109   2.010   1_655  S
O104        C114   1.279       .  A
O105       Cu110   2.006   1_655  S
O105        C114   1.276       .  A
O106       Cu110   2.008       .  S
O106        C113   1.279       .  A
O107       Cu110   2.012   1_655  S
O107        C112   1.278       .  A
O108       Cu110   2.010       .  S
O108        C111   1.278       .  A
Cu109      Cu110   2.363       .  S
C111        C252   1.485       .  S
C112        C288   1.484       .  S
C113        C276   1.493       .  S
C114        C264   1.492       .  S
C115        C116   1.402       .  A
C115        C120   1.404       .  A
C115        C249   1.477       .  S
C116        C117   1.400       .  A
C116        H121   1.084       .  S
C117        C118   1.402   1_565  A
C118        C119   1.402       .  A
C118        H122   1.084       .  S
C119        C120   1.402   1_545  A
C119        C568   1.470   1_554  S
C120        H515   1.084   1_554  S
H123        C512   1.084       .  S
C124        C125   1.405       .  A
C124        C129   1.404       .  A
C124        C273   1.484       .  S
C125        C126   1.402       .  A
C125        H522   1.084   1_554  S
C126        C127   1.402       .  A
C126        C561   1.472   1_554  S
C127        C128   1.401       .  A
C127        H131   1.084       .  S
C128        C129   1.400       .  A
C129        H132   1.084       .  S
H130        C517   1.084       .  S
C133        C134   1.404       .  A
C133        C138   1.405       .  A
C133        C261   1.484       .  S
C134        C135   1.401       .  A
C134        H139   1.084       .  S
C135        C136   1.401   1_565  A
C136        C137   1.402       .  A
C136        H140   1.084       .  S
C137        C138   1.401   1_545  A
C137        C577   1.472   1_554  S
C138        H533   1.084   1_554  S
H141        C530   1.084       .  S
C142        C143   1.403       .  A
C142        C147   1.404       .  A
C142        C285   1.478       .  S
C143        C144   1.401       .  A
C143        H148   1.084       .  S
C144        C145   1.402       .  A
C145        C146   1.402       .  A
C145        H149   1.084       .  S
C146        C147   1.402       .  A
C146        C586   1.472   1_554  S
C147        H542   1.084   1_554  S
H150        C539   1.084       .  S
O151       Cu159   2.015       .  S
O151        C161   1.279       .  A
O152       Cu159   2.017   1_655  S
O152        C162   1.280       .  A
O153       Cu159   2.006   1_655  S
O153        C163   1.276       .  A
O154       Cu159   2.003       .  S
O154        C164   1.277       .  A
O155       Cu160   2.014       .  S
O155        C164   1.279       .  A
O156       Cu160   2.014   1_655  S
O156        C163   1.279       .  A
O157       Cu160   2.001   1_655  S
O157        C162   1.275       .  A
O158       Cu160   2.004       .  S
O158        C161   1.277       .  A
Cu159      Cu160   2.363       .  S
C161        C201   1.484       .  S
C162        C228   1.494       .  S
C163        C237   1.493       .  S
C164        C216   1.486       .  S
C165        C166   1.404       .  A
C165        C170   1.403       .  A
C165        C204   1.478       .  S
C166        C167   1.402       .  A
C166        H171   1.084       .  S
C167        C168   1.401       .  A
C168        C169   1.402       .  A
C168        H172   1.084       .  S
C169        C170   1.401       .  A
C169        C518   1.472       .  S
C170        H565   1.084       .  S
H173        C562   1.084   1_554  S
C174        C175   1.404       .  A
C174        C179   1.403       .  A
C174        C213   1.478       .  S
C175        C176   1.401       .  A
C175        H572   1.084       .  S
C176        C177   1.401       .  A
C176        C511   1.470       .  S
C177        C178   1.401       .  A
C177        H181   1.084       .  S
C178        C179   1.401       .  A
C179        H182   1.084       .  S
H180        C567   1.084   1_554  S
C183        C184   1.405       .  A
C183        C188   1.406       .  A
C183        C225   1.486       .  S
C184        C185   1.400       .  A
C184        H581   1.084       .  S
C185        C186   1.401       .  A
C185        C529   1.472       .  S
C186        C187   1.401       .  A
C186        H190   1.084       .  S
C187        C188   1.403       .  A
C188        H191   1.083       .  S
H189        C576   1.084   1_554  S
C192        C193   1.405       .  A
C192        C197   1.406       .  A
C192        C240   1.484       .  S
C193        C194   1.402       .  A
C193        H590   1.084       .  S
C194        C195   1.402       .  A
C194        C538   1.472       .  S
C195        C196   1.402       .  A
C195        H199   1.084       .  S
C196        C197   1.401       .  A
C197        H200   1.084       .  S
H198        C585   1.084   1_554  S
C201        C202   1.406       .  A
C201        C206   1.417       .  A
C202        C203   1.401       .  A
C202        H211   1.084       .  S
C203        C204   1.412       .  A
C203        S207   1.804       .  S
C204        C205   1.401       .  A
C205        C206   1.399       .  A
C205        H604   1.084       .  S
C206        S600   1.803       .  S
S207        H210   1.406       .  S
S208        C598   1.803   1_554  S
S208        H209   1.408   1_554  S
H212        C597   1.084   1_554  S
C213        C214   1.401       .  A
C213        C218   1.412       .  A
C214        C215   1.398       .  A
C214        H223   1.084       .  S
C215        C216   1.418       .  A
C215        S219   1.802       .  S
C216        C217   1.407       .  A
C217        C218   1.400       .  A
C217        H616   1.084       .  S
C218        S612   1.804       .  S
S219        H222   1.408       .  S
S220        C610   1.804   1_554  S
S220        H221   1.406       .  S
H224        C609   1.084   1_554  S
C225        C226   1.402       .  A
C225        C230   1.414       .  A
C226        C227   1.397       .  A
C226        H627   1.084       .  S
C227        C228   1.421       .  A
C227        S623   1.800       .  S
C228        C229   1.409       .  A
C229        C230   1.401       .  A
C229        H236   1.083       .  S
C230        S232   1.804       .  S
S231        C619   1.800   1_554  S
S231        H234   1.408       .  S
S232        H233   1.407       .  S
H235        C618   1.084   1_554  S
C237        C238   1.409       .  A
C237        C242   1.420       .  A
C238        C239   1.400       .  A
C238        H639   1.083       .  S
C239        C240   1.413       .  A
C239        S635   1.804       .  S
C240        C241   1.402       .  A
C241        C242   1.399       .  A
C241        H248   1.084       .  S
C242        S244   1.800       .  S
S243        C631   1.804   1_554  S
S243        H246   1.407       .  S
S244        H245   1.408       .  S
H247        C630   1.083   1_554  S
C249        C250   1.401       .  A
C249        C254   1.411       .  A
C250        C251   1.397       .  A
C250        H259   1.084       .  S
C251        C252   1.418       .  A
C251        S255   1.802       .  S
C252        C253   1.407       .  A
C253        C254   1.400       .  A
C253        H652   1.084   1_554  S
C254        S648   1.804   1_554  S
S255        H258   1.408       .  S
S256        C646   1.804       .  S
S256        H257   1.406       .  S
H260        C645   1.084       .  S
C261        C262   1.402       .  A
C261        C266   1.413       .  A
C262        C263   1.398       .  A
C262        H663   1.084   1_554  S
C263        C264   1.420       .  A
C263        S659   1.800   1_554  S
C264        C265   1.409       .  A
C265        C266   1.399       .  A
C265        H272   1.083       .  S
C266        S268   1.804       .  S
S267        C655   1.800       .  S
S267        H270   1.408       .  S
S268        H269   1.407       .  S
H271        C654   1.084       .  S
C273        C274   1.403       .  A
C273        C278   1.413       .  A
C274        C275   1.399       .  A
C274        H283   1.084       .  S
C275        C276   1.420       .  A
C275        S279   1.800       .  S
C276        C277   1.409       .  A
C277        C278   1.399       .  A
C277        H676   1.083   1_554  S
C278        S672   1.804   1_554  S
S279        H282   1.408       .  S
S280        C670   1.804       .  S
S280        H281   1.407       .  S
H284        C669   1.083       .  S
C285        C286   1.401       .  A
C285        C290   1.412       .  A
C286        C287   1.398       .  A
C286        H295   1.084       .  S
C287        C288   1.417       .  A
C287        S291   1.803       .  S
C288        C289   1.406       .  A
C289        C290   1.400       .  A
C289        H688   1.084   1_554  S
C290        S684   1.804   1_554  S
S291        H294   1.408   1_655  S
S292        C682   1.804       .  S
S292        H293   1.406       .  S
H296        C681   1.084       .  S
C297        C298   1.406       .  A
C297        C302   1.416       .  A
C298        C299   1.400       .  A
C298        H307   1.084       .  S
C299        C300   1.411       .  A
C299        S303   1.804       .  S
C300        C301   1.400       .  A
C301        C302   1.397       .  A
C301        H308   1.084       .  S
C302        S304   1.797       .  S
S303        H306   1.406       .  S
S304        H305   1.405       .  S
C309        C310   1.407       .  A
C309        C314   1.418       .  A
C310        C311   1.399       .  A
C310        H319   1.084       .  S
C311        C312   1.412       .  A
C311        S315   1.804       .  S
C312        C313   1.402       .  A
C313        C314   1.399       .  A
C313        H320   1.084       .  S
C314        S316   1.802       .  S
S315        H318   1.406       .  S
S316        H317   1.408       .  S
C321        C322   1.408       .  A
C321        C326   1.420       .  A
C322        C323   1.400       .  A
C322        H331   1.083       .  S
C323        C324   1.413       .  A
C323        S327   1.804       .  S
C324        C325   1.402       .  A
C325        C326   1.398       .  A
C325        H332   1.084       .  S
C326        S328   1.800       .  S
S327        H330   1.407       .  S
S328        H329   1.408       .  S
C333        C334   1.401       .  A
C333        C338   1.412       .  A
C334        C335   1.397       .  A
C334        H343   1.084       .  S
C335        C336   1.421       .  A
C335        S339   1.801       .  S
C336        C337   1.409       .  A
C337        C338   1.399       .  A
C337        H344   1.083       .  S
C338        S340   1.804       .  S
S339        H342   1.400       .  S
S340        H341   1.407       .  S
C345        C346   1.409       .  A
C345        C350   1.420       .  A
C346        C347   1.400       .  A
C346        H355   1.083       .  S
C347        C348   1.412       .  A
C347        S351   1.804       .  S
C348        C349   1.401       .  A
C349        C350   1.398       .  A
C349        H356   1.084       .  S
C350        S352   1.798       .  S
S351        H354   1.407       .  S
S352        H353   1.401       .  S
C357        C358   1.407       .  A
C357        C362   1.418       .  A
C358        C359   1.400       .  A
C358        H367   1.084       .  S
C359        C360   1.412       .  A
C359        S363   1.804       .  S
C360        C361   1.401       .  A
C361        C362   1.399       .  A
C361        H368   1.084       .  S
C362        S364   1.802       .  S
S363        H366   1.406       .  S
S364        H365   1.408       .  S
C369        C370   1.409       .  A
C369        C374   1.420       .  A
C370        C371   1.400       .  A
C370        H379   1.083       .  S
C371        C372   1.413       .  A
C371        S375   1.804       .  S
C372        C373   1.402       .  A
C373        C374   1.399       .  A
C373        H380   1.084       .  S
C374        S376   1.800       .  S
S375        H378   1.407       .  S
S376        H377   1.408       .  S
C381        C382   1.400       .  A
C381        C386   1.412       .  A
C382        C383   1.397       .  A
C382        H391   1.084       .  S
C383        C384   1.420       .  A
C383        S387   1.798       .  S
C384        C385   1.408       .  A
C385        C386   1.400       .  A
C385        H392   1.083       .  S
C386        S388   1.804       .  S
S387        H390   1.401       .  S
S388        H389   1.407       .  S
C393        C394   1.405       .  A
C393        C398   1.404       .  A
C393        C773   1.481       .  S
C394        C395   1.402       .  A
C394        H399   1.084       .  S
C395        C396   1.401       .  A
C395        C570   1.470       .  S
C396        C397   1.401       .  A
C396        H400   1.084       .  S
C397        C398   1.400       .  A
C397        C445   1.469       .  S
C398        H401   1.084       .  S
O402       Cu410   2.008       .  S
O402        C412   1.277       .  A
O403       Cu410   2.005       .  S
O403        C413   1.276       .  A
O404       Cu410   2.007       .  S
O404        C414   1.277       .  A
O405       Cu410   2.012       .  S
O405        C415   1.277       .  A
O406       Cu411   2.012       .  S
O406        C415   1.279       .  A
O407       Cu411   2.013       .  S
O407        C414   1.279       .  A
O408       Cu411   2.014       .  S
O408        C413   1.279       .  A
O409       Cu411   2.014       .  S
O409        C412   1.279       .  A
Cu410      Cu411   2.363       .  S
C412        C776   1.491       .  S
C413        C761   1.493       .  S
C414        C749   1.487       .  S
C415        C737   1.492       .  S
C416        C417   1.404       .  A
C416        C421   1.405       .  A
C416        C752   1.479       .  S
C417        C418   1.401       .  A
C417        H422   1.084       .  S
C418        C419   1.401       .  A
C418        C468   1.472       .  S
C419        C420   1.402       .  A
C419        H423   1.084       .  S
C420        C421   1.402       .  A
C420        C579   1.472       .  S
C421        H424   1.084       .  S
C425        C426   1.403       .  A
C425        C430   1.405       .  A
C425        C740   1.481       .  S
C426        C427   1.400       .  A
C426        H431   1.084       .  S
C427        C428   1.402       .  A
C427        C477   1.471       .  S
C428        C429   1.402       .  A
C428        H432   1.084       .  S
C429        C430   1.402       .  A
C429        C559   1.471       .  S
C430        H433   1.084       .  S
C434        C435   1.405       .  A
C434        C439   1.406       .  A
C434        C764   1.484       .  S
C435        C436   1.401       .  A
C435        H440   1.084       .  S
C436        C437   1.401       .  A
C436        C488   1.472       .  S
C437        C438   1.402       .  A
C437        H441   1.084       .  S
C438        C439   1.403       .  A
C438        C588   1.473       .  S
C439        H442   1.084       .  S
C443        C444   1.404       .  A
C443        C448   1.404       .  A
C443        C725   1.482       .  S
C444        C445   1.401   1_565  A
C444        H449   1.084       .  S
C445        C446   1.401       .  A
C446        C447   1.401   1_545  A
C446        H450   1.084       .  S
C447        C448   1.401       .  A
C447        C509   1.470       .  S
C448        H451   1.084       .  S
O452       Cu460   2.012       .  S
O452        C462   1.278       .  A
O453       Cu460   2.007       .  S
O453        C463   1.277       .  A
O454       Cu460   2.002       .  S
O454        C464   1.275       .  A
O455       Cu460   2.003       .  S
O455        C465   1.276       .  A
O456       Cu461   2.013       .  S
O456        C465   1.279       .  A
O457       Cu461   2.015       .  S
O457        C464   1.280       .  A
O458       Cu461   2.010       .  S
O458        C463   1.278       .  A
O459       Cu461   2.009       .  S
O459        C462   1.278       .  A
Cu460      Cu461   2.364       .  S
C462        C689   1.484       .  S
C463        C701   1.486       .  S
C464        C728   1.491       .  S
C465        C713   1.492       .  S
C466        C467   1.403       .  A
C466        C471   1.402       .  A
C466        C692   1.475       .  S
C467        C468   1.402   1_565  A
C467        H472   1.084       .  S
C468        C469   1.402       .  A
C469        C470   1.402   1_545  A
C469        H473   1.084       .  S
C470        C471   1.400       .  A
C470        C527   1.470       .  S
C471        H474   1.084       .  S
C475        C476   1.404       .  A
C475        C480   1.403       .  A
C475        C704   1.479       .  S
C476        C477   1.401       .  A
C476        H481   1.084       .  S
C477        C478   1.401       .  A
C478        C479   1.402       .  A
C478        H482   1.084       .  S
C479        C480   1.402       .  A
C479        C520   1.471       .  S
C480        H483   1.084       .  S
C484        C485   1.404       .  A
C484        C489   1.405       .  A
C484        C716   1.484       .  S
C485        C486   1.400       .  A
C485        H490   1.084       .  S
C486        C487   1.401       .  A
C486        C536   1.472       .  S
C487        C488   1.402       .  A
C487        H491   1.084       .  S
C488        C489   1.402       .  A
C489        H492   1.084       .  S
O493       Cu501   2.003       .  S
O493        C503   1.277       .  A
O494       Cu501   2.005   1_655  S
O494        C504   1.277       .  A
O495       Cu501   2.008       .  S
O495        C505   1.276       .  A
O496       Cu501   2.010   1_655  S
O496        C506   1.279       .  A
O497       Cu502   2.006   1_655  S
O497        C506   1.276       .  A
O498       Cu502   2.008       .  S
O498        C505   1.279       .  A
O499       Cu502   2.012   1_655  S
O499        C504   1.278       .  A
O500       Cu502   2.010       .  S
O500        C503   1.278       .  A
Cu501      Cu502   2.363       .  S
C503        C644   1.485       .  S
C504        C680   1.484       .  S
C505        C668   1.493       .  S
C506        C656   1.492       .  S
C507        C508   1.402       .  A
C507        C512   1.404       .  A
C507        C641   1.477       .  S
C508        C509   1.400       .  A
C508        H513   1.084       .  S
C509        C510   1.402   1_565  A
C510        C511   1.402       .  A
C510        H514   1.084       .  S
C511        C512   1.402   1_545  A
C516        C517   1.405       .  A
C516        C521   1.404       .  A
C516        C665   1.484       .  S
C517        C518   1.402       .  A
C518        C519   1.402       .  A
C519        C520   1.401       .  A
C519        H523   1.084       .  S
C520        C521   1.400       .  A
C521        H524   1.084       .  S
C525        C526   1.404       .  A
C525        C530   1.405       .  A
C525        C653   1.484       .  S
C526        C527   1.401       .  A
C526        H531   1.084       .  S
C527        C528   1.401   1_565  A
C528        C529   1.402       .  A
C528        H532   1.084       .  S
C529        C530   1.401   1_545  A
C534        C535   1.403       .  A
C534        C539   1.404       .  A
C534        C677   1.478       .  S
C535        C536   1.401       .  A
C535        H540   1.084       .  S
C536        C537   1.402       .  A
C537        C538   1.402       .  A
C537        H541   1.084       .  S
C538        C539   1.402       .  A
O543       Cu551   2.015       .  S
O543        C553   1.279       .  A
O544       Cu551   2.017   1_655  S
O544        C554   1.280       .  A
O545       Cu551   2.006   1_655  S
O545        C555   1.276       .  A
O546       Cu551   2.003       .  S
O546        C556   1.277       .  A
O547       Cu552   2.014       .  S
O547        C556   1.279       .  A
O548       Cu552   2.014   1_655  S
O548        C555   1.279       .  A
O549       Cu552   2.001   1_655  S
O549        C554   1.275       .  A
O550       Cu552   2.004       .  S
O550        C553   1.277       .  A
Cu551      Cu552   2.363       .  S
C553        C593   1.484       .  S
C554        C620   1.494       .  S
C555        C629   1.493       .  S
C556        C608   1.486       .  S
C557        C558   1.404       .  A
C557        C562   1.403       .  A
C557        C596   1.478       .  S
C558        C559   1.402       .  A
C558        H563   1.084       .  S
C559        C560   1.401       .  A
C560        C561   1.402       .  A
C560        H564   1.084       .  S
C561        C562   1.401       .  A
C566        C567   1.404       .  A
C566        C571   1.403       .  A
C566        C605   1.478       .  S
C567        C568   1.401       .  A
C568        C569   1.401       .  A
C569        C570   1.401       .  A
C569        H573   1.084       .  S
C570        C571   1.401       .  A
C571        H574   1.084       .  S
C575        C576   1.405       .  A
C575        C580   1.406       .  A
C575        C617   1.486       .  S
C576        C577   1.400       .  A
C577        C578   1.401       .  A
C578        C579   1.401       .  A
C578        H582   1.084       .  S
C579        C580   1.403       .  A
C580        H583   1.083       .  S
C584        C585   1.405       .  A
C584        C589   1.406       .  A
C584        C632   1.484       .  S
C585        C586   1.402       .  A
C586        C587   1.402       .  A
C587        C588   1.402       .  A
C587        H591   1.084       .  S
C588        C589   1.401       .  A
C589        H592   1.084       .  S
C593        C594   1.406       .  A
C593        C598   1.417       .  A
C594        C595   1.401       .  A
C594        H603   1.084       .  S
C595        C596   1.412       .  A
C595        S599   1.804       .  S
C596        C597   1.401       .  A
C597        C598   1.399       .  A
S599        H602   1.406       .  S
S600        H601   1.408       .  S
C605        C606   1.401       .  A
C605        C610   1.412       .  A
C606        C607   1.398       .  A
C606        H615   1.084       .  S
C607        C608   1.418       .  A
C607        S611   1.802       .  S
C608        C609   1.407       .  A
C609        C610   1.400       .  A
S611        H614   1.408       .  S
S612        H613   1.406       .  S
C617        C618   1.402       .  A
C617        C622   1.414       .  A
C618        C619   1.397       .  A
C619        C620   1.421       .  A
C620        C621   1.409       .  A
C621        C622   1.401       .  A
C621        H628   1.083       .  S
C622        S624   1.804       .  S
S623        H626   1.408       .  S
S624        H625   1.407       .  S
C629        C630   1.409       .  A
C629        C634   1.420       .  A
C630        C631   1.400       .  A
C631        C632   1.413       .  A
C632        C633   1.402       .  A
C633        C634   1.399       .  A
C633        H640   1.084       .  S
C634        S636   1.800       .  S
S635        H638   1.407       .  S
S636        H637   1.408       .  S
C641        C642   1.401       .  A
C641        C646   1.411       .  A
C642        C643   1.397       .  A
C642        H651   1.084       .  S
C643        C644   1.418       .  A
C643        S647   1.802       .  S
C644        C645   1.407       .  A
C645        C646   1.400       .  A
S647        H650   1.408       .  S
S648        H649   1.406       .  S
C653        C654   1.402       .  A
C653        C658   1.413       .  A
C654        C655   1.398       .  A
C655        C656   1.420       .  A
C656        C657   1.409       .  A
C657        C658   1.399       .  A
C657        H664   1.083       .  S
C658        S660   1.804       .  S
S659        H662   1.408       .  S
S660        H661   1.407       .  S
C665        C666   1.403       .  A
C665        C670   1.413       .  A
C666        C667   1.399       .  A
C666        H675   1.084       .  S
C667        C668   1.420       .  A
C667        S671   1.800       .  S
C668        C669   1.409       .  A
C669        C670   1.399       .  A
S671        H674   1.408       .  S
S672        H673   1.407       .  S
C677        C678   1.401       .  A
C677        C682   1.412       .  A
C678        C679   1.398       .  A
C678        H687   1.084       .  S
C679        C680   1.417       .  A
C679        S683   1.803       .  S
C680        C681   1.406       .  A
C681        C682   1.400       .  A
S683        H686   1.408   1_655  S
S684        H685   1.406       .  S
C689        C690   1.406       .  A
C689        C694   1.416       .  A
C690        C691   1.400       .  A
C690        H699   1.084       .  S
C691        C692   1.411       .  A
C691        S695   1.804       .  S
C692        C693   1.400       .  A
C693        C694   1.397       .  A
C693        H700   1.084       .  S
C694        S696   1.797       .  S
S695        H698   1.406       .  S
S696        H697   1.405       .  S
C701        C702   1.407       .  A
C701        C706   1.418       .  A
C702        C703   1.399       .  A
C702        H711   1.084       .  S
C703        C704   1.412       .  A
C703        S707   1.804       .  S
C704        C705   1.402       .  A
C705        C706   1.399       .  A
C705        H712   1.084       .  S
C706        S708   1.802       .  S
S707        H710   1.406       .  S
S708        H709   1.408       .  S
C713        C714   1.408       .  A
C713        C718   1.420       .  A
C714        C715   1.400       .  A
C714        H723   1.083       .  S
C715        C716   1.413       .  A
C715        S719   1.804       .  S
C716        C717   1.402       .  A
C717        C718   1.398       .  A
C717        H724   1.084       .  S
C718        S720   1.800       .  S
S719        H722   1.407       .  S
S720        H721   1.408       .  S
C725        C726   1.401       .  A
C725        C730   1.412       .  A
C726        C727   1.397       .  A
C726        H735   1.084       .  S
C727        C728   1.421       .  A
C727        S731   1.801       .  S
C728        C729   1.409       .  A
C729        C730   1.399       .  A
C729        H736   1.083       .  S
C730        S732   1.804       .  S
S731        H734   1.400       .  S
S732        H733   1.407       .  S
C737        C738   1.409       .  A
C737        C742   1.420       .  A
C738        C739   1.400       .  A
C738        H747   1.083       .  S
C739        C740   1.412       .  A
C739        S743   1.804       .  S
C740        C741   1.401       .  A
C741        C742   1.398       .  A
C741        H748   1.084       .  S
C742        S744   1.798       .  S
S743        H746   1.407       .  S
S744        H745   1.401       .  S
C749        C750   1.407       .  A
C749        C754   1.418       .  A
C750        C751   1.400       .  A
C750        H759   1.084       .  S
C751        C752   1.412       .  A
C751        S755   1.804       .  S
C752        C753   1.401       .  A
C753        C754   1.399       .  A
C753        H760   1.084       .  S
C754        S756   1.802       .  S
S755        H758   1.406       .  S
S756        H757   1.408       .  S
C761        C762   1.409       .  A
C761        C766   1.420       .  A
C762        C763   1.400       .  A
C762        H771   1.083       .  S
C763        C764   1.413       .  A
C763        S767   1.804       .  S
C764        C765   1.402       .  A
C765        C766   1.399       .  A
C765        H772   1.084       .  S
C766        S768   1.800       .  S
S767        H770   1.407       .  S
S768        H769   1.408       .  S
C773        C774   1.400       .  A
C773        C778   1.412       .  A
C774        C775   1.397       .  A
C774        H783   1.084       .  S
C775        C776   1.420       .  A
C775        S779   1.798       .  S
C776        C777   1.408       .  A
C777        C778   1.400       .  A
C777        H784   1.083       .  S
C778        S780   1.804       .  S
S779        H782   1.401       .  S
S780        H781   1.407       .  S
