geometry optimzed in LAMMPS
_audit_creation_date              2020-11-30 
_audit_creation_method            'lammps2cif' 
_symmetry_space_group_name_H-M    'P1' 
_symmetry_Int_Tables_number       1 
_symmetry_cell_setting            triclinic 
loop_ 
_symmetry_equiv_pos_as_xyz 
  x,y,z 
_cell_length_a                    51.65355356 
_cell_length_b                    51.66071987023385 
_cell_length_c                    40.398119706816324 
_cell_angle_alpha                 89.94876950091002 
_cell_angle_beta                  89.98314530721046 
_cell_angle_gamma                 89.99982760488065 
loop_ 
_atom_site_label 
_atom_site_type_symbol 
_atom_site_fract_x 
_atom_site_fract_y 
_atom_site_fract_z 
_atom_site_charge 
N1          N  0.31404272  0.03546170  0.57940539    -0.25300
N2          N  0.33460087  0.04638281  0.56571153    -0.33200
C3          C  0.34096474  0.03323514  0.53815800     0.03000
C4          C  0.32357061  0.01319408  0.53447858     0.09100
C5          C  0.30677059  0.01506415  0.56091846    -0.04000
H6          H  0.35711446  0.03787514  0.52215206     0.09700
H7          H  0.29056857  0.00250663  0.56645012     0.10900
Cu8        Cu  0.35331951  0.07844413  0.58515177     0.44200
Cu9        Cu  0.29699852  0.04852792  0.62278060     0.42000
Cu10       Cu  0.32718980  0.10414867  0.66157744     0.43900
N11         N  0.36861271  0.11025176  0.60953842    -0.32700
N12         N  0.35908522  0.11963326  0.63746765    -0.26900
C13         C  0.37329781  0.14019506  0.64680406    -0.03000
C14         C  0.39258088  0.14379786  0.62362374     0.09200
C15         C  0.38914577  0.12458392  0.60035116     0.03000
H16         H  0.36981407  0.15162264  0.66879268     0.10600
H17         H  0.40066158  0.12123429  0.57838993     0.09700
N18         N  0.29490651  0.08543099  0.68053757    -0.34100
N19         N  0.28385361  0.06516310  0.66637006    -0.26300
C20         C  0.26332998  0.05781100  0.68462247    -0.01600
C21         C  0.26151191  0.07425096  0.71141108     0.07100
C22         C  0.28171869  0.09151963  0.70817670     0.05200
H23         H  0.25066581  0.04178461  0.67871390     0.10300
H24         H  0.28644599  0.10739789  0.72454555     0.09100
O25         O  0.51238219  0.26281313  0.65107780    -0.70900
O26         O  0.45711976  0.20809438  0.65117187    -0.71900
O27         O  0.51211884  0.20781861  0.65104918    -0.60500
O28         O  0.45739324  0.26308859  0.65116630    -0.69000
O29         O  0.45734802  0.26312738  0.59614104    -0.68500
O30         O  0.51205993  0.20787468  0.59602429    -0.59800
O31         O  0.45706818  0.20813912  0.59614706    -0.72300
O32         O  0.51232748  0.26285908  0.59605247    -0.71100
Cu33       Cu  0.48475495  0.23545077  0.65305949     1.04600
Cu34       Cu  0.48469885  0.23550044  0.59415261     1.04300
C35         C  0.52098029  0.27139447  0.62354979     0.95200
C36         C  0.44846185  0.19956373  0.62367485     0.94400
C37         C  0.52064302  0.19921541  0.62351201     0.86500
C38         C  0.44882675  0.27174802  0.62366654     0.92800
N39         N  0.68488199  0.06491798  0.66756508    -0.25300
N40         N  0.67396796  0.08546813  0.68124042    -0.33200
C41         C  0.68712584  0.09181660  0.70879188     0.03000
C42         C  0.70716581  0.07441817  0.71248583     0.09100
C43         C  0.70528545  0.05763329  0.68606057    -0.04000
H44         H  0.68249005  0.10795398  0.72478875     0.09700
H45         H  0.71783703  0.04143087  0.68054715     0.10900
Cu46       Cu  0.64188841  0.10416854  0.66178982     0.44200
Cu47       Cu  0.67178814  0.04789326  0.62421809     0.42000
Cu48       Cu  0.61597704  0.07790816  0.58555211     0.43900
N49         N  0.61001074  0.11940213  0.63746080    -0.32700
N50         N  0.60053800  0.10982705  0.60961558    -0.26900
C51         C  0.57993994  0.12402281  0.60031873    -0.03000
C52         C  0.57641381  0.14334099  0.62343882     0.09200
C53         C  0.59570748  0.13994490  0.64663115     0.03000
H54         H  0.56843727  0.12050539  0.57839844     0.10600
H55         H  0.59912909  0.15149183  0.66853129     0.09700
N56         N  0.63477548  0.04569857  0.56655999    -0.34100
N57         N  0.65512238  0.03472244  0.58067681    -0.26300
C58         C  0.66252556  0.01424420  0.56241680    -0.01600
C59         C  0.64603624  0.01237229  0.53567328     0.07100
C60         C  0.62868523  0.03250193  0.53894362     0.05200
H61         H  0.67861682  0.00164344  0.56829466     0.10300
H62         H  0.61275010  0.03716947  0.52261478     0.09100
N63         N  0.28515584  0.40655564  0.66864552    -0.25300
N64         N  0.29605950  0.38596255  0.68227023    -0.33200
C65         C  0.28291925  0.37956810  0.70984452     0.03000
C66         C  0.26290068  0.39697993  0.71361130     0.09100
C67         C  0.26477670  0.41382018  0.68719993    -0.04000
H68         H  0.28752722  0.36336496  0.72577908     0.09700
H69         H  0.25221166  0.43002210  0.68170699     0.10900
Cu70       Cu  0.32803351  0.36718818  0.66265198     0.44200
Cu71       Cu  0.29815658  0.42359433  0.62519709     0.42000
Cu72       Cu  0.35360441  0.39323189  0.58607834     0.43900
N73         N  0.35973935  0.35180840  0.63810643    -0.32700
N74         N  0.36908149  0.36130533  0.61011814    -0.26900
C75         C  0.38958436  0.34703551  0.60068434    -0.03000
C76         C  0.39318627  0.32774789  0.62386664     0.09200
C77         C  0.37403583  0.33124004  0.64723742     0.03000
H78         H  0.40097252  0.35048418  0.57863209     0.10600
H79         H  0.37070654  0.31974044  0.66923006     0.09700
N80         N  0.33486347  0.42550976  0.56715835    -0.34100
N81         N  0.31466573  0.43662836  0.58143378    -0.26300
C82         C  0.30726911  0.45711085  0.56313244    -0.01600
C83         C  0.32360626  0.45882931  0.53620039     0.07100
C84         C  0.34086029  0.43861089  0.53940306     0.05200
H85         H  0.29127700  0.46980774  0.56909666     0.10300
H86         H  0.35666259  0.43381080  0.52292539     0.09100
N87         N  0.65602791  0.43510539  0.57912910    -0.25300
N88         N  0.63546463  0.42428456  0.56535355    -0.33200
C89         C  0.62916837  0.43756618  0.53785236     0.03000
C90         C  0.64661095  0.45758661  0.53429333     0.09100
C91         C  0.66336842  0.45556586  0.56074913    -0.04000
H92         H  0.61300917  0.43305263  0.52182567     0.09700
H93         H  0.67956535  0.46808841  0.56639263     0.10900
Cu94       Cu  0.61657535  0.39223388  0.58467017     0.44200
Cu95       Cu  0.67293970  0.42192311  0.62255078     0.42000
Cu96       Cu  0.64254234  0.36632111  0.66110094     0.43900
N97         N  0.60110211  0.36047792  0.60908744    -0.32700
N98         N  0.61059377  0.35102200  0.63700950    -0.26900
C99         C  0.59626957  0.33054323  0.64640993    -0.03000
C100        C  0.57694603  0.32706777  0.62328275     0.09200
C101        C  0.58047407  0.34627168  0.59996791     0.03000
H102        H  0.59970538  0.31908629  0.66840952     0.10600
H103        H  0.56896040  0.34969625  0.57802482     0.09700
N104        N  0.67469682  0.38500143  0.68036093    -0.34100
N105        N  0.68583308  0.40528589  0.66628988    -0.26300
C106        C  0.70620138  0.41265975  0.68477952    -0.01600
C107        C  0.70782386  0.39621359  0.71162143     0.07100
C108        C  0.68766879  0.37891984  0.70817020     0.05200
H109        H  0.71888712  0.42870881  0.67900323     0.10300
H110        H  0.68282331  0.36303758  0.72451612     0.09100
N111        N  0.28489014  0.90637126  0.32942879    -0.25300
N112        N  0.29569468  0.88572711  0.31584350    -0.33200
C113        C  0.28246972  0.87933878  0.28835947     0.03000
C114        C  0.26249751  0.89680841  0.28461095     0.09100
C115        C  0.26448960  0.91367767  0.31093859    -0.04000
H116        H  0.28700985  0.86312160  0.27245005     0.09700
H117        H  0.25201030  0.92994759  0.31639472     0.10900
Cu118      Cu  0.32770660  0.86694272  0.33533911     0.44200
Cu119      Cu  0.29811800  0.92346506  0.37267550     0.42000
Cu120      Cu  0.35377852  0.89324458  0.41145953     0.43900
N121        N  0.35951735  0.85161690  0.35970907    -0.32700
N122        N  0.36904269  0.86120900  0.38751448    -0.26900
C123        C  0.38959324  0.84696020  0.39683796    -0.03000
C124        C  0.39303342  0.82758957  0.37377505     0.09200
C125        C  0.37374089  0.83100690  0.35058872     0.03000
H126        H  0.40113479  0.85049186  0.41872130     0.10600
H127        H  0.37027917  0.81944316  0.32871357     0.09700
N128        N  0.33513585  0.92556103  0.43034645    -0.34100
N129        N  0.31484818  0.93661831  0.41619379    -0.26300
C130        C  0.30749677  0.95711011  0.43446187    -0.01600
C131        C  0.32395858  0.95890015  0.46124207     0.07100
C132        C  0.34123977  0.93871344  0.45798908     0.05200
H133        H  0.29143348  0.96974948  0.42859468     0.10300
H134        H  0.35711133  0.93395121  0.47437494     0.09100
O135        O  0.45739625  0.76313986  0.34630383    -0.70900
O136        O  0.51215866  0.70791747  0.34643667    -0.71900
O137        O  0.45715737  0.70815053  0.34624419    -0.60500
O138        O  0.51239755  0.76290778  0.34645005    -0.69000
O139        O  0.51228808  0.76285337  0.40147368    -0.68500
O140        O  0.45704508  0.70808921  0.40126792    -0.59800
O141        O  0.51203357  0.70787322  0.40146283    -0.72300
O142        O  0.45729594  0.76306759  0.40133023    -0.71100
Cu143      Cu  0.48478143  0.73553153  0.34441479     1.04600
Cu144      Cu  0.48466123  0.73546903  0.40332161     1.04300
C145        C  0.44878666  0.77172436  0.37380626     0.95200
C146        C  0.52065459  0.69927317  0.37398002     0.94400
C147        C  0.44847221  0.69956043  0.37372391     0.86500
C148        C  0.52097502  0.77143714  0.37398993     0.92800
N149        N  0.68576533  0.90550610  0.33093327    -0.25300
N150        N  0.67475908  0.88513407  0.31695051    -0.33200
C151        C  0.68788959  0.87899608  0.28928609     0.03000
C152        C  0.70800775  0.89634149  0.28584294     0.09100
C153        C  0.70619981  0.91287803  0.31253280    -0.04000
H154        H  0.68317173  0.86304568  0.27302778     0.09700
H155        H  0.71880312  0.92899105  0.31826694     0.10900
Cu156      Cu  0.64256386  0.86639608  0.33611590     0.44200
Cu157      Cu  0.67267793  0.92227718  0.37446006     0.42000
Cu158      Cu  0.61634606  0.89254558  0.41224603     0.43900
N159        N  0.61058626  0.85109930  0.36024104    -0.32700
N160        N  0.60100727  0.86065412  0.38804550    -0.26900
C161        C  0.58039810  0.84643262  0.39724643    -0.03000
C162        C  0.57696789  0.82711070  0.37411369     0.09200
C163        C  0.59633403  0.83053732  0.35100228     0.03000
H164        H  0.56882529  0.84993127  0.41912012     0.10600
H165        H  0.59984056  0.81899588  0.32911701     0.09700
N166        N  0.63515653  0.92460677  0.43159235    -0.34100
N167        N  0.65572621  0.93545606  0.41783399    -0.26300
C168        C  0.66306954  0.95586848  0.43624932    -0.01600
C169        C  0.64630482  0.95782883  0.46271558     0.07100
C170        C  0.62885653  0.93782056  0.45912159     0.05200
H171        H  0.67928932  0.96838291  0.43064293     0.10300
H172        H  0.61270713  0.93325471  0.47516248     0.09100
N173        N  0.31385323  0.53544137  0.41786315    -0.25300
N174        N  0.33437854  0.54635936  0.43160347    -0.33200
C175        C  0.34067908  0.53319537  0.45919502     0.03000
C176        C  0.32327960  0.51314782  0.46285280     0.09100
C177        C  0.30654207  0.51503072  0.43635655    -0.04000
H178        H  0.35678785  0.53783190  0.47524705     0.09700
H179        H  0.29035062  0.50247793  0.43079752     0.10900
Cu180      Cu  0.35314242  0.57845135  0.41218934     0.44200
Cu181      Cu  0.29688280  0.54855201  0.37444206     0.42000
Cu182      Cu  0.32708369  0.60434171  0.33583250     0.43900
N183        N  0.36851978  0.61028323  0.38782507    -0.32700
N184        N  0.35900867  0.61973409  0.35991127    -0.26900
C185        C  0.37326468  0.64028039  0.35056625    -0.03000
C186        C  0.39256257  0.64380460  0.37372499     0.09200
C187        C  0.38908732  0.62455737  0.39699509     0.03000
H188        H  0.36979801  0.65175337  0.32858830     0.10600
H189        H  0.40059739  0.62114946  0.41894542     0.09700
N190        N  0.29484948  0.58563989  0.31678317    -0.34100
N191        N  0.28380318  0.56530806  0.33086528    -0.26300
C192        C  0.26333082  0.55797772  0.31253705    -0.01600
C193        C  0.26154062  0.57449830  0.28579050     0.07100
C194        C  0.28170894  0.59179182  0.28912682     0.05200
H195        H  0.25068455  0.54190836  0.31836300     0.10300
H196        H  0.28644774  0.60772407  0.27280937     0.09100
N197        N  0.68481583  0.56510732  0.32947439    -0.25300
N198        N  0.67390212  0.58572146  0.31592140    -0.33200
C199        C  0.68692798  0.59207956  0.28825042     0.03000
C200        C  0.70688357  0.57461970  0.28434530     0.09100
C201        C  0.70509279  0.55778803  0.31077460    -0.04000
H202        H  0.68226133  0.60826632  0.27231643     0.09700
H203        H  0.71762105  0.54153436  0.31615366     0.10900
Cu204      Cu  0.64198692  0.60447393  0.33566801     0.44200
Cu205      Cu  0.67186314  0.54805971  0.37292600     0.42000
Cu206      Cu  0.61622518  0.57812973  0.41200706     0.43900
N207        N  0.61016445  0.61967110  0.36010645    -0.32700
N208        N  0.60073492  0.61006578  0.38798667    -0.26900
C209        C  0.58011238  0.62421242  0.39729769    -0.03000
C210        C  0.57653043  0.64352707  0.37414608     0.09200
C211        C  0.59581238  0.64018313  0.35092513     0.03000
H212        H  0.56862016  0.62065202  0.41923240     0.10600
H213        H  0.59917998  0.65172990  0.32898232     0.09700
N214        N  0.63502085  0.54583556  0.43081165    -0.34100
N215        N  0.65529454  0.53484453  0.41654985    -0.26300
C216        C  0.66269238  0.51429050  0.43471279    -0.01600
C217        C  0.64627746  0.51238526  0.46154146     0.07100
C218        C  0.62897426  0.53257217  0.45842514     0.05200
H219        H  0.67872425  0.50165625  0.42870548     0.10300
H220        H  0.61309534  0.53722916  0.47484971     0.09100
O221        O  0.01238126  0.76291854  0.09632130    -0.70900
O222        O  0.95712623  0.70818382  0.09602400    -0.71900
O223        O  0.95739632  0.76316787  0.09615659    -0.60500
O224        O  0.01211713  0.70792712  0.09614342    -0.69000
O225        O  0.01202307  0.70779462  0.15116875    -0.68500
O226        O  0.95728954  0.76304595  0.15118213    -0.59800
O227        O  0.95703590  0.70806200  0.15104945    -0.72300
O228        O  0.01227517  0.76278174  0.15134647    -0.71100
Cu229      Cu  0.98475953  0.73555337  0.09421983     1.04600
Cu230      Cu  0.98465326  0.73541542  0.15312733     1.04300
C231        C  0.02095097  0.77141102  0.12388484     0.95200
C232        C  0.94844970  0.69957125  0.12349742     0.94400
C233        C  0.94879281  0.77173959  0.12366511     0.86500
C234        C  0.02062012  0.69922761  0.12365130     0.92800
N235        N  0.15516018  0.93577598  0.07996484    -0.25300
N236        N  0.13452636  0.92494363  0.06638435    -0.33200
C237        C  0.12816920  0.93810501  0.03881602     0.03000
C238        C  0.14564637  0.95806373  0.03500601     0.09100
C239        C  0.16248958  0.95613215  0.06138684    -0.04000
H240        H  0.11199467  0.93350250  0.02285596     0.09700
H241        H  0.17878548  0.96859241  0.06678559     0.10900
Cu242      Cu  0.11578926  0.89289112  0.08588640     0.44200
Cu243      Cu  0.17229665  0.92255215  0.12321779     0.42000
Cu244      Cu  0.14245068  0.86651131  0.16167199     0.43900
N245        N  0.10063086  0.86091245  0.11011180    -0.32700
N246        N  0.11036732  0.85126069  0.13778564    -0.26900
C247        C  0.09621135  0.83062036  0.14703804    -0.03000
C248        C  0.07674926  0.82725170  0.12406697     0.09200
C249        C  0.08001938  0.84668225  0.10100771     0.03000
H250        H  0.09986296  0.81897345  0.16881642     0.10600
H251        H  0.06835361  0.85023310  0.07922922     0.09700
N252        N  0.17470439  0.88524490  0.18061967    -0.34100
N253        N  0.18560720  0.90568066  0.16660113    -0.26300
C254        C  0.20609164  0.91305633  0.18487533    -0.01600
C255        C  0.20804160  0.89645584  0.21151976     0.07100
C256        C  0.18795434  0.87906812  0.20818157     0.05200
H257        H  0.21862337  0.92922567  0.17909738     0.10300
H258        H  0.18332657  0.86307514  0.22445398     0.09100
N259        N  0.15430978  0.53404848  0.08156400    -0.25300
N260        N  0.13390771  0.54500447  0.06755173    -0.33200
C261        C  0.12775954  0.53183127  0.03994407     0.03000
C262        C  0.14512946  0.51173654  0.03656548     0.09100
C263        C  0.16169227  0.51360031  0.06323551    -0.04000
H264        H  0.11182241  0.53654199  0.02363822     0.09700
H265        H  0.17786686  0.50106390  0.06896157     0.10900
Cu266      Cu  0.11524212  0.57729231  0.08646608     0.44200
Cu267      Cu  0.17120777  0.54733744  0.12490784     0.42000
Cu268      Cu  0.14173400  0.60399479  0.16210147     0.43900
N269        N  0.10010945  0.60946245  0.11024161    -0.32700
N270        N  0.10979101  0.61921511  0.13786673    -0.26900
C271        C  0.09564825  0.63991302  0.14687683    -0.05400
C272        C  0.07624823  0.64321960  0.12380456     0.09200
C273        C  0.07954155  0.62369023  0.10092660     0.03000
H274        H  0.09924675  0.65162224  0.16858835     0.10600
H275        H  0.06790065  0.62004897  0.07915903     0.09700
N276        N  0.17383909  0.58528086  0.18150524    -0.34100
N277        N  0.18459582  0.56459109  0.16796917    -0.26300
C278        C  0.20503828  0.55731924  0.18640669    -0.01600
C279        C  0.20711206  0.57425704  0.21265132     0.07100
C280        C  0.18714059  0.59173161  0.20890777     0.05200
H281        H  0.21747094  0.54100478  0.18099389     0.10300
H282        H  0.18263282  0.60797434  0.22478956     0.09100
N283        N  0.81461842  0.93644751  0.08080127    -0.25300
N284        N  0.83506107  0.92555363  0.06681388    -0.33200
C285        C  0.84116958  0.93873930  0.03916686     0.03000
C286        C  0.82373032  0.95877219  0.03574004     0.09100
C287        C  0.80716999  0.95686287  0.06241947    -0.04000
H288        H  0.85715387  0.93410646  0.02289871     0.09700
H289        H  0.79098221  0.96937617  0.06815157     0.10900
Cu290      Cu  0.85389839  0.89339168  0.08587336     0.44200
Cu291      Cu  0.79781584  0.92322640  0.12427077     0.42000
Cu292      Cu  0.82745302  0.86675091  0.16165112     0.43900
N293        N  0.86913510  0.86132504  0.10984130    -0.32700
N294        N  0.85945006  0.85158709  0.13750239    -0.26900
C295        C  0.87365127  0.83095674  0.14664574    -0.03000
C296        C  0.89309735  0.82767818  0.12362671     0.09200
C297        C  0.88976822  0.84715313  0.10063684     0.03000
H298        H  0.87006016  0.81927405  0.16841219     0.10600
H299        H  0.90142357  0.85078955  0.07886354     0.09700
N300        N  0.79541212  0.88548357  0.18115774    -0.34100
N301        N  0.78459282  0.90612646  0.16755204    -0.26300
C302        C  0.76422439  0.91344964  0.18608733    -0.01600
C303        C  0.76226727  0.89659179  0.21247035     0.07100
C304        C  0.78222770  0.87911169  0.20870544     0.05200
H305        H  0.75175723  0.92973660  0.18064056     0.10300
H306        H  0.78680209  0.86291445  0.22466546     0.09100
N307        N  0.78320294  0.56595001  0.16567166    -0.25300
N308        N  0.79414814  0.58635409  0.17965486    -0.33200
C309        C  0.78096808  0.59248842  0.20727878     0.03000
C310        C  0.76088255  0.57510562  0.21069336     0.09100
C311        C  0.76275738  0.55855141  0.18403175    -0.04000
H312        H  0.78566991  0.60842136  0.22357279     0.09700
H313        H  0.75023086  0.54237108  0.17833244     0.10900
Cu314      Cu  0.82644111  0.60502293  0.16068369     0.44200
Cu315      Cu  0.79649051  0.54907089  0.12232185     0.42000
Cu316      Cu  0.85323808  0.57844544  0.08513468     0.43900
N317        N  0.85865835  0.62011087  0.13689294    -0.32700
N318        N  0.86845512  0.61038566  0.10931121    -0.26900
C319        C  0.88917402  0.62450607  0.10027607    -0.03000
C320        C  0.89244749  0.64393926  0.12328560     0.09200
C321        C  0.87287818  0.64068706  0.14615378     0.03000
H322        H  0.90091438  0.62087479  0.07858453     0.10600
H323        H  0.86920345  0.65236301  0.16787673     0.09700
N324        N  0.83443338  0.54644141  0.06567854    -0.34100
N325        N  0.81370480  0.53572325  0.07921038    -0.26300
C326        C  0.80637728  0.51533849  0.06073801    -0.01600
C327        C  0.82332012  0.51326435  0.03447392     0.07100
C328        C  0.84085528  0.53317276  0.03824236     0.05200
H329        H  0.79003281  0.50293542  0.06615272     0.10300
H330        H  0.85712836  0.53765035  0.02236593     0.09100
O331        O  0.01209668  0.20785517  0.90114031    -0.70900
O332        O  0.95733280  0.26308223  0.90130888    -0.71900
O333        O  0.95710323  0.20809036  0.90121685    -0.60500
O334        O  0.01233396  0.26283947  0.90118812    -0.69000
O335        O  0.01227618  0.26290899  0.84616140    -0.68500
O336        O  0.95707217  0.20818424  0.84619014    -0.59800
O337        O  0.95728453  0.26316603  0.84628488    -0.72300
O338        O  0.01205401  0.20793669  0.84611561    -0.71100
Cu339      Cu  0.98471753  0.23546510  0.90315752     1.04600
Cu340      Cu  0.98466923  0.23555300  0.84424972     1.04300
C341        C  0.02063491  0.19926926  0.87360342     0.95200
C342        C  0.94874656  0.27175008  0.87382493     0.94400
C343        C  0.94846861  0.19957681  0.87369781     0.86500
C344        C  0.02093599  0.27142273  0.87366163     0.92800
N345        N  0.15511639  0.43557122  0.91800043    -0.25300
N346        N  0.13445097  0.42471819  0.93151182    -0.33200
C347        C  0.12804805  0.43780902  0.95909160     0.03000
C348        C  0.14553188  0.45774435  0.96298153     0.09100
C349        C  0.16242348  0.45587294  0.93663597    -0.04000
H350        H  0.11183479  0.43317985  0.97499743     0.09700
H351        H  0.17873235  0.46834201  0.93129502     0.10900
Cu352      Cu  0.11574632  0.39274094  0.91188494     0.44200
Cu353      Cu  0.17231617  0.42243843  0.87476038     0.42000
Cu354      Cu  0.14245781  0.36658272  0.83601518     0.43900
N355        N  0.10063788  0.36082673  0.88758745    -0.32700
N356        N  0.11037676  0.35125849  0.85988216    -0.26900
C357        C  0.09624182  0.33062500  0.85061192    -0.03000
C358        C  0.07679527  0.32717899  0.87360758     0.09200
C359        C  0.08004897  0.34655200  0.89669500     0.03000
H360        H  0.09989572  0.31903777  0.82880585     0.10600
H361        H  0.06838419  0.35003830  0.91849211     0.09700
N362        N  0.17483346  0.38527819  0.81728785    -0.34100
N363        N  0.18574608  0.40563835  0.83141858    -0.26300
C364        C  0.20633029  0.41299588  0.81328397    -0.01600
C365        C  0.20833592  0.39646223  0.78661451     0.07100
C366        C  0.18817615  0.37913384  0.78979164     0.05200
H367        H  0.21888528  0.42911389  0.81916613     0.10300
H368        H  0.18355740  0.36320660  0.77344980     0.09100
N369        N  0.15443744  0.03420298  0.91607177    -0.25300
N370        N  0.13410393  0.04525450  0.93011463    -0.33200
C371        C  0.12801389  0.03219372  0.95786581     0.03000
C372        C  0.14535017  0.01207234  0.96130812     0.09100
C373        C  0.16183137  0.01380327  0.93452313    -0.04000
H374        H  0.11212027  0.03698062  0.97420582     0.09700
H375        H  0.17794221  0.00119316  0.92878449     0.10900
Cu376      Cu  0.11540782  0.07747877  0.91100407     0.44200
Cu377      Cu  0.17119843  0.04727659  0.87248853     0.42000
Cu378      Cu  0.14168990  0.10389730  0.83504405     0.43900
N379        N  0.10020256  0.10956793  0.88705836    -0.32700
N380        N  0.10980924  0.11922916  0.85930920    -0.26900
C381        C  0.09564019  0.13990001  0.85021690    -0.03000
C382        C  0.07630094  0.14328265  0.87336736     0.09200
C383        C  0.07966015  0.12382582  0.89637301     0.03000
H384        H  0.09918002  0.15154024  0.82839962     0.10600
H385        H  0.06808201  0.12025633  0.91823148     0.09700
N386        N  0.17371940  0.08506530  0.81561407    -0.34100
N387        N  0.18447801  0.06439152  0.82922974    -0.26300
C388        C  0.20489182  0.05706966  0.81077264    -0.01600
C389        C  0.20694646  0.07395629  0.78443133     0.07100
C390        C  0.18699314  0.09145381  0.78814006     0.05200
H391        H  0.21734045  0.04077740  0.81626277     0.10300
H392        H  0.18249884  0.10769040  0.77220831     0.09100
N393        N  0.81407647  0.03535474  0.91741425    -0.25300
N394        N  0.83468134  0.04617002  0.93108629    -0.33200
C395        C  0.84096857  0.03298836  0.95866323     0.03000
C396        C  0.82347246  0.01303695  0.96237862     0.09100
C397        C  0.80669386  0.01499066  0.93593780    -0.04000
H398        H  0.85712191  0.03755732  0.97467402     0.09700
H399        H  0.79042116  0.00252571  0.93044374     0.10900
Cu400      Cu  0.85349454  0.07819443  0.91165850     0.44200
Cu401      Cu  0.79707209  0.04857371  0.87408974     0.42000
Cu402      Cu  0.82696662  0.10461920  0.83580906     0.43900
N403        N  0.86871246  0.11015218  0.88747344    -0.32700
N404        N  0.85901991  0.11982358  0.85978592    -0.26900
C405        C  0.87320822  0.14044944  0.85057170    -0.03000
C406        C  0.89264424  0.14378556  0.87358246     0.09200
C407        C  0.88932889  0.12435364  0.89662496     0.03000
H408        H  0.86959796  0.15210567  0.82878997     0.10600
H409        H  0.90096639  0.12078179  0.91842259     0.09700
N410        N  0.79476545  0.08589892  0.81672552    -0.34100
N411        N  0.78384590  0.06544750  0.83068136    -0.26300
C412        C  0.76340013  0.05807692  0.81233664    -0.01600
C413        C  0.76149494  0.07469992  0.78571193     0.07100
C414        C  0.78156630  0.09209413  0.78913287     0.05200
H415        H  0.75086112  0.04190107  0.81805861     0.10300
H416        H  0.78621497  0.10810542  0.77289972     0.09100
N417        N  0.78430160  0.40596288  0.82998986    -0.25300
N418        N  0.79510033  0.38530807  0.81642242    -0.33200
C419        C  0.78187128  0.37891806  0.78893979     0.03000
C420        C  0.76190471  0.39639618  0.78517681     0.09100
C421        C  0.76390485  0.41327377  0.81149391    -0.04000
H422        H  0.78643769  0.36272665  0.77299994     0.09700
H423        H  0.75146545  0.42958403  0.81690279     0.10900
Cu424      Cu  0.82721220  0.36660700  0.83584459     0.44200
Cu425      Cu  0.79761286  0.42313992  0.87313184     0.42000
Cu426      Cu  0.85366630  0.39328430  0.91153201     0.43900
N427        N  0.85925234  0.35147627  0.85997831    -0.32700
N428        N  0.86892629  0.36122208  0.88761287    -0.26900
C429        C  0.88958159  0.34707685  0.89682629    -0.03000
C430        C  0.89294191  0.32760834  0.87387455     0.09200
C431        C  0.87348649  0.33086686  0.85086399     0.03000
H432        H  0.90123498  0.35072948  0.91857960     0.10600
H433        H  0.86991163  0.31918327  0.82912336     0.09700
N434        N  0.83490245  0.42551238  0.93050352    -0.34100
N435        N  0.81447352  0.43642251  0.91649518    -0.26300
C436        C  0.80708001  0.45688999  0.93477853    -0.01600
C437        C  0.82366044  0.45882136  0.96141993     0.07100
C438        C  0.84105547  0.43874092  0.95807023     0.05200
H439        H  0.79091279  0.46942347  0.92900741     0.10300
H440        H  0.85704106  0.43410706  0.97433428     0.09100
C441        C  0.04065588  0.29098333  0.87361931    -0.11300
C442        C  0.05717958  0.30746547  0.87356969    -0.12800
C443        C  0.04021394  0.17955328  0.87354549    -0.11300
C444        C  0.05667654  0.16300168  0.87347550    -0.12800
C445        C  0.91227629  0.16348268  0.87360775    -0.11300
C446        C  0.92878126  0.17998344  0.87367027    -0.12800
C447        C  0.92915190  0.29145434  0.87388794    -0.11300
C448        C  0.91265048  0.30796958  0.87391041    -0.12800
C449        C  0.82306045  0.49408091  0.00875177    -0.11300
C450        C  0.82316798  0.47799465  0.98715018    -0.12800
C451        C  0.82319926  0.97788948  0.00991117    -0.11300
C452        C  0.82311777  0.99391932  0.98821125    -0.12800
C453        C  0.14568164  0.49269181  0.01068648    -0.11300
C454        C  0.14580705  0.47674998  0.98891355    -0.12800
C455        C  0.14597731  0.97711384  0.00908048    -0.11300
C456        C  0.14588455  0.99306067  0.98727445    -0.12800
C457        C  0.04064151  0.79101003  0.12400528    -0.11300
C458        C  0.05713746  0.80752518  0.12408051    -0.12800
C459        C  0.91276600  0.80801042  0.12361653    -0.11300
C460        C  0.92923253  0.79146694  0.12364739    -0.12800
C461        C  0.04017602  0.67949492  0.12364125    -0.11300
C462        C  0.05662463  0.66293305  0.12367579    -0.12800
C463        C  0.92872235  0.68001068  0.12341615    -0.11300
C464        C  0.91216342  0.66355960  0.12337041    -0.12800
C465        C  0.72588978  0.57436912  0.25838735    -0.11300
C466        C  0.74183733  0.57452618  0.23659791    -0.12800
C467        C  0.24238660  0.57407207  0.26001219    -0.11300
C468        C  0.22630654  0.57399966  0.23838446    -0.12800
C469        C  0.72712070  0.89680894  0.26000478    -0.11300
C470        C  0.74315102  0.89688658  0.23830715    -0.12800
C471        C  0.54070378  0.79100865  0.37405045    -0.11300
C472        C  0.55725942  0.80747037  0.37408338    -0.12800
C473        C  0.42875864  0.67997423  0.37365538    -0.11300
C474        C  0.41222934  0.66348631  0.37365248    -0.12800
C475        C  0.54024714  0.67958261  0.37406296    -0.11300
C476        C  0.55676748  0.66309564  0.37414950    -0.12800
C477        C  0.22722321  0.89693936  0.23725835    -0.11300
C478        C  0.24331204  0.89705333  0.25887212    -0.12800
C479        C  0.41271109  0.80793693  0.37381509    -0.11300
C480        C  0.42919973  0.79141912  0.37379515    -0.12800
C481        C  0.72683662  0.39667828  0.73756808    -0.11300
C482        C  0.74280989  0.39672987  0.75932452    -0.12800
C483        C  0.64687831  0.47689061  0.50867106    -0.11300
C484        C  0.64677321  0.49308724  0.48716569    -0.12800
C485        C  0.24371604  0.39714741  0.73936798    -0.11300
C486        C  0.22759353  0.39698441  0.76095346    -0.12800
C487        C  0.32297439  0.49400639  0.48867761    -0.11300
C488        C  0.32307182  0.47796209  0.51037153    -0.12800
C489        C  0.72630444  0.07415057  0.73827405    -0.11300
C490        C  0.74235688  0.07423988  0.75992768    -0.12800
C491        C  0.64651690  0.99316084  0.50997950    -0.11300
C492        C  0.64660072  0.97704121  0.48841237    -0.12800
C493        C  0.42928489  0.29149617  0.62369091    -0.11300
C494        C  0.41283730  0.30806004  0.62372879    -0.12800
C495        C  0.55670627  0.16297408  0.62340196    -0.11300
C496        C  0.54021749  0.17949788  0.62344830    -0.12800
C497        C  0.55722868  0.30744693  0.62342173    -0.11300
C498        C  0.54068743  0.29097706  0.62350775    -0.12800
C499        C  0.24229383  0.07378699  0.73712848    -0.11300
C500        C  0.22617027  0.07369658  0.75871713    -0.12800
C501        C  0.32344851  0.97802350  0.48703281    -0.11300
C502        C  0.32332664  0.99406223  0.50869240    -0.12800
C503        C  0.41222070  0.16349919  0.62369775    -0.11300
C504        C  0.42874385  0.17998903  0.62370724    -0.12800
loop_ 
_geom_bond_atom_site_label_1 
_geom_bond_atom_site_label_2 
_geom_bond_distance 
_geom_bond_site_symmetry_2 
_ccdc_geom_bond_type 
N1            N2   1.323       .  A
N1            C5   1.346       .  A
N1           Cu9   2.074       .  S
N2            C3   1.345       .  A
N2           Cu8   2.073       .  S
C3            C4   1.379       .  A
C3            H6   1.082       .  S
C4            C5   1.379       .  A
C4          C502   1.437   1_545  S
C5            H7   1.082       .  S
Cu8          N11   2.073       .  S
Cu9          N19   2.074       .  S
Cu10         N12   2.074       .  S
Cu10         N18   2.074       .  S
N11          N12   1.323       .  A
N11          C15   1.345       .  A
N12          C13   1.346       .  A
C13          C14   1.379       .  A
C13          H16   1.082       .  S
C14          C15   1.379       .  A
C14         C503   1.437       .  S
C15          H17   1.082       .  S
N18          N19   1.323       .  A
N18          C22   1.345       .  A
N19          C20   1.346       .  A
C20          C21   1.379       .  A
C20          H23   1.082       .  S
C21          C22   1.379       .  A
C21         C499   1.437       .  S
C22          H24   1.082       .  S
O25         Cu33   2.010       .  S
O25          C35   1.276       .  A
O26         Cu33   2.010       .  S
O26          C36   1.276       .  A
O27         Cu33   2.011       .  S
O27          C37   1.277       .  A
O28         Cu33   2.010       .  S
O28          C38   1.277       .  A
O29         Cu34   2.010       .  S
O29          C38   1.276       .  A
O30         Cu34   2.010       .  S
O30          C37   1.276       .  A
O31         Cu34   2.010       .  S
O31          C36   1.276       .  A
O32         Cu34   2.010       .  S
O32          C35   1.276       .  A
Cu33        Cu34   2.380       .  S
C35         C498   1.435       .  S
C36         C504   1.435       .  S
C37         C496   1.435       .  S
C38         C493   1.435       .  S
N39          N40   1.323       .  A
N39          C43   1.346       .  A
N39         Cu47   2.074       .  S
N40          C41   1.345       .  A
N40         Cu46   2.073       .  S
C41          C42   1.379       .  A
C41          H44   1.082       .  S
C42          C43   1.379       .  A
C42         C489   1.436       .  S
C43          H45   1.082       .  S
Cu46         N49   2.073       .  S
Cu47         N57   2.074       .  S
Cu48         N50   2.074       .  S
Cu48         N56   2.074       .  S
N49          N50   1.323       .  A
N49          C53   1.345       .  A
N50          C51   1.346       .  A
C51          C52   1.380       .  A
C51          H54   1.082       .  S
C52          C53   1.379       .  A
C52         C495   1.437       .  S
C53          H55   1.082       .  S
N56          N57   1.323       .  A
N56          C60   1.345       .  A
N57          C58   1.346       .  A
C58          C59   1.379       .  A
C58          H61   1.082       .  S
C59          C60   1.379       .  A
C59         C491   1.437   1_545  S
C60          H62   1.082       .  S
N63          N64   1.323       .  A
N63          C67   1.346       .  A
N63         Cu71   2.074       .  S
N64          C65   1.345       .  A
N64         Cu70   2.073       .  S
C65          C66   1.379       .  A
C65          H68   1.082       .  S
C66          C67   1.379       .  A
C66         C485   1.437       .  S
C67          H69   1.082       .  S
Cu70         N73   2.073       .  S
Cu71         N81   2.074       .  S
Cu72         N74   2.074       .  S
Cu72         N80   2.074       .  S
N73          N74   1.323       .  A
N73          C77   1.345       .  A
N74          C75   1.346       .  A
C75          C76   1.379       .  A
C75          H78   1.082       .  S
C76          C77   1.379       .  A
C76         C494   1.437       .  S
C77          H79   1.082       .  S
N80          N81   1.323       .  A
N80          C84   1.345       .  A
N81          C82   1.346       .  A
C82          C83   1.380       .  A
C82          H85   1.082       .  S
C83          C84   1.379       .  A
C83         C488   1.437       .  S
C84          H86   1.082       .  S
N87          N88   1.323       .  A
N87          C91   1.346       .  A
N87         Cu95   2.074       .  S
N88          C89   1.345       .  A
N88         Cu94   2.074       .  S
C89          C90   1.379       .  A
C89          H92   1.082       .  S
C90          C91   1.379       .  A
C90         C483   1.437       .  S
C91          H93   1.082       .  S
Cu94         N97   2.074       .  S
Cu95        N105   2.074       .  S
Cu96         N98   2.073       .  S
Cu96        N104   2.073       .  S
N97          N98   1.323       .  A
N97         C101   1.346       .  A
N98          C99   1.345       .  A
C99         C100   1.379       .  A
C99         H102   1.082       .  S
C100        C101   1.379       .  A
C100        C497   1.437       .  S
C101        H103   1.082       .  S
N104        N105   1.323       .  A
N104        C108   1.345       .  A
N105        C106   1.346       .  A
C106        C107   1.380       .  A
C106        H109   1.082       .  S
C107        C108   1.379       .  A
C107        C481   1.437       .  S
C108        H110   1.082       .  S
N111        N112   1.323       .  A
N111        C115   1.346       .  A
N111       Cu119   2.074       .  S
N112        C113   1.345       .  A
N112       Cu118   2.073       .  S
C113        C114   1.379       .  A
C113        H116   1.082       .  S
C114        C115   1.379       .  A
C114        C478   1.437       .  S
C115        H117   1.082       .  S
Cu118       N121   2.073       .  S
Cu119       N129   2.074       .  S
Cu120       N122   2.073       .  S
Cu120       N128   2.073       .  S
N121        N122   1.323       .  A
N121        C125   1.345       .  A
N122        C123   1.345       .  A
C123        C124   1.379       .  A
C123        H126   1.082       .  S
C124        C125   1.379       .  A
C124        C479   1.437       .  S
C125        H127   1.082       .  S
N128        N129   1.323       .  A
N128        C132   1.345       .  A
N129        C130   1.346       .  A
C130        C131   1.379       .  A
C130        H133   1.082       .  S
C131        C132   1.379       .  A
C131        C501   1.437       .  S
C132        H134   1.082       .  S
O135       Cu143   2.010       .  S
O135        C145   1.277       .  A
O136       Cu143   2.010       .  S
O136        C146   1.277       .  A
O137       Cu143   2.010       .  S
O137        C147   1.276       .  A
O138       Cu143   2.010       .  S
O138        C148   1.276       .  A
O139       Cu144   2.011       .  S
O139        C148   1.277       .  A
O140       Cu144   2.011       .  S
O140        C147   1.277       .  A
O141       Cu144   2.009       .  S
O141        C146   1.276       .  A
O142       Cu144   2.009       .  S
O142        C145   1.276       .  A
Cu143      Cu144   2.380       .  S
C145        C480   1.435       .  S
C146        C475   1.435       .  S
C147        C473   1.436       .  S
C148        C471   1.436       .  S
N149        N150   1.323       .  A
N149        C153   1.346       .  A
N149       Cu157   2.074       .  S
N150        C151   1.345       .  A
N150       Cu156   2.074       .  S
C151        C152   1.379       .  A
C151        H154   1.082       .  S
C152        C153   1.379       .  A
C152        C469   1.437       .  S
C153        H155   1.082       .  S
Cu156       N159   2.074       .  S
Cu157       N167   2.074       .  S
Cu158       N160   2.074       .  S
Cu158       N166   2.074       .  S
N159        N160   1.323       .  A
N159        C163   1.346       .  A
N160        C161   1.346       .  A
C161        C162   1.379       .  A
C161        H164   1.082       .  S
C162        C163   1.379       .  A
C162        C472   1.437       .  S
C163        H165   1.082       .  S
N166        N167   1.323       .  A
N166        C170   1.345       .  A
N167        C168   1.346       .  A
C168        C169   1.379       .  A
C168        H171   1.082       .  S
C169        C170   1.379       .  A
C169        C492   1.437       .  S
C170        H172   1.082       .  S
N173        N174   1.323       .  A
N173        C177   1.346       .  A
N173       Cu181   2.074       .  S
N174        C175   1.345       .  A
N174       Cu180   2.074       .  S
C175        C176   1.379       .  A
C175        H178   1.082       .  S
C176        C177   1.380       .  A
C176        C487   1.437       .  S
C177        H179   1.082       .  S
Cu180       N183   2.074       .  S
Cu181       N191   2.074       .  S
Cu182       N184   2.074       .  S
Cu182       N190   2.074       .  S
N183        N184   1.323       .  A
N183        C187   1.346       .  A
N184        C185   1.346       .  A
C185        C186   1.379       .  A
C185        H188   1.082       .  S
C186        C187   1.379       .  A
C186        C474   1.437       .  S
C187        H189   1.082       .  S
N190        N191   1.323       .  A
N190        C194   1.345       .  A
N191        C192   1.346       .  A
C192        C193   1.379       .  A
C192        H195   1.082       .  S
C193        C194   1.379       .  A
C193        C467   1.437       .  S
C194        H196   1.082       .  S
N197        N198   1.323       .  A
N197        C201   1.346       .  A
N197       Cu205   2.074       .  S
N198        C199   1.345       .  A
N198       Cu204   2.072       .  S
C199        C200   1.379       .  A
C199        H202   1.082       .  S
C200        C201   1.379       .  A
C200        C465   1.436       .  S
C201        H203   1.082       .  S
Cu204       N207   2.072       .  S
Cu205       N215   2.074       .  S
Cu206       N208   2.074       .  S
Cu206       N214   2.074       .  S
N207        N208   1.323       .  A
N207        C211   1.345       .  A
N208        C209   1.346       .  A
C209        C210   1.380       .  A
C209        H212   1.082       .  S
C210        C211   1.379       .  A
C210        C476   1.437       .  S
C211        H213   1.082       .  S
N214        N215   1.323       .  A
N214        C218   1.345       .  A
N215        C216   1.346       .  A
C216        C217   1.379       .  A
C216        H219   1.082       .  S
C217        C218   1.379       .  A
C217        C484   1.437       .  S
C218        H220   1.082       .  S
O221       Cu229   2.010   1_455  S
O221        C231   1.277       .  A
O222       Cu229   2.010       .  S
O222        C232   1.277       .  A
O223       Cu229   2.010       .  S
O223        C233   1.276       .  A
O224       Cu229   2.010   1_455  S
O224        C234   1.276       .  A
O225       Cu230   2.010   1_455  S
O225        C234   1.276       .  A
O226       Cu230   2.010       .  S
O226        C233   1.277       .  A
O227       Cu230   2.010       .  S
O227        C232   1.276       .  A
O228       Cu230   2.010   1_455  S
O228        C231   1.276       .  A
Cu229      Cu230   2.380       .  S
C231        C457   1.435       .  S
C232        C463   1.435       .  S
C233        C460   1.435       .  S
C234        C461   1.435       .  S
N235        N236   1.323       .  A
N235        C239   1.346       .  A
N235       Cu243   2.074       .  S
N236        C237   1.345       .  A
N236       Cu242   2.073       .  S
C237        C238   1.379       .  A
C237        H240   1.082       .  S
C238        C239   1.380       .  A
C238        C455   1.437       .  S
C239        H241   1.082       .  S
Cu242       N245   2.073       .  S
Cu243       N253   2.074       .  S
Cu244       N246   2.074       .  S
Cu244       N252   2.074       .  S
N245        N246   1.323       .  A
N245        C249   1.345       .  A
N246        C247   1.346       .  A
C247        C248   1.379       .  A
C247        H250   1.082       .  S
C248        C249   1.379       .  A
C248        C458   1.437       .  S
C249        H251   1.082       .  S
N252        N253   1.323       .  A
N252        C256   1.345       .  A
N253        C254   1.346       .  A
C254        C255   1.379       .  A
C254        H257   1.082       .  S
C255        C256   1.379       .  A
C255        C477   1.437       .  S
C256        H258   1.082       .  S
N259        N260   1.323       .  A
N259        C263   1.346       .  A
N259       Cu267   2.074       .  S
N260        C261   1.345       .  A
N260       Cu266   2.073       .  S
C261        C262   1.379       .  A
C261        H264   1.082       .  S
C262        C263   1.379       .  A
C262        C453   1.437       .  S
C263        H265   1.082       .  S
Cu266       N269   2.073       .  S
Cu267       N277   2.074       .  S
Cu268       N270   2.073       .  S
Cu268       N276   2.073       .  S
N269        N270   1.323       .  A
N269        C273   1.345       .  A
N270        C271   1.345       .  A
C271        C272   1.379       .  A
C271        H274   1.082       .  S
C272        C273   1.379       .  A
C272        C462   1.437       .  S
C273        H275   1.082       .  S
N276        N277   1.323       .  A
N276        C280   1.345       .  A
N277        C278   1.346       .  A
C278        C279   1.379       .  A
C278        H281   1.082       .  S
C279        C280   1.379       .  A
C279        C468   1.437       .  S
C280        H282   1.082       .  S
N283        N284   1.323       .  A
N283        C287   1.346       .  A
N283       Cu291   2.074       .  S
N284        C285   1.345       .  A
N284       Cu290   2.073       .  S
C285        C286   1.379       .  A
C285        H288   1.082       .  S
C286        C287   1.379       .  A
C286        C451   1.436       .  S
C287        H289   1.082       .  S
Cu290       N293   2.073       .  S
Cu291       N301   2.074       .  S
Cu292       N294   2.073       .  S
Cu292       N300   2.073       .  S
N293        N294   1.323       .  A
N293        C297   1.346       .  A
N294        C295   1.345       .  A
C295        C296   1.379       .  A
C295        H298   1.082       .  S
C296        C297   1.379       .  A
C296        C459   1.437       .  S
C297        H299   1.082       .  S
N300        N301   1.323       .  A
N300        C304   1.345       .  A
N301        C302   1.346       .  A
C302        C303   1.379       .  A
C302        H305   1.082       .  S
C303        C304   1.379       .  A
C303        C470   1.437       .  S
C304        H306   1.082       .  S
N307        N308   1.323       .  A
N307        C311   1.346       .  A
N307       Cu315   2.074       .  S
N308        C309   1.345       .  A
N308       Cu314   2.073       .  S
C309        C310   1.379       .  A
C309        H312   1.082       .  S
C310        C311   1.379       .  A
C310        C466   1.436       .  S
C311        H313   1.082       .  S
Cu314       N317   2.073       .  S
Cu315       N325   2.074       .  S
Cu316       N318   2.073       .  S
Cu316       N324   2.073       .  S
N317        N318   1.323       .  A
N317        C321   1.345       .  A
N318        C319   1.345       .  A
C319        C320   1.379       .  A
C319        H322   1.082       .  S
C320        C321   1.379       .  A
C320        C464   1.437       .  S
C321        H323   1.082       .  S
N324        N325   1.323       .  A
N324        C328   1.345       .  A
N325        C326   1.346       .  A
C326        C327   1.379       .  A
C326        H329   1.082       .  S
C327        C328   1.379       .  A
C327        C449   1.437       .  S
C328        H330   1.082       .  S
O331       Cu339   2.010   1_455  S
O331        C341   1.276       .  A
O332       Cu339   2.010       .  S
O332        C342   1.276       .  A
O333       Cu339   2.010       .  S
O333        C343   1.276       .  A
O334       Cu339   2.010   1_455  S
O334        C344   1.277       .  A
O335       Cu340   2.009   1_455  S
O335        C344   1.276       .  A
O336       Cu340   2.009       .  S
O336        C343   1.276       .  A
O337       Cu340   2.011       .  S
O337        C342   1.277       .  A
O338       Cu340   2.010   1_455  S
O338        C341   1.277       .  A
Cu339      Cu340   2.380       .  S
C341        C443   1.435       .  S
C342        C447   1.435       .  S
C343        C446   1.435       .  S
C344        C441   1.435       .  S
N345        N346   1.323       .  A
N345        C349   1.346       .  A
N345       Cu353   2.074       .  S
N346        C347   1.345       .  A
N346       Cu352   2.072       .  S
C347        C348   1.379       .  A
C347        H350   1.082       .  S
C348        C349   1.379       .  A
C348        C454   1.437       .  S
C349        H351   1.082       .  S
Cu352       N355   2.072       .  S
Cu353       N363   2.074       .  S
Cu354       N356   2.074       .  S
Cu354       N362   2.074       .  S
N355        N356   1.323       .  A
N355        C359   1.345       .  A
N356        C357   1.346       .  A
C357        C358   1.379       .  A
C357        H360   1.082       .  S
C358        C359   1.379       .  A
C358        C442   1.437       .  S
C359        H361   1.082       .  S
N362        N363   1.323       .  A
N362        C366   1.345       .  A
N363        C364   1.346       .  A
C364        C365   1.379       .  A
C364        H367   1.082       .  S
C365        C366   1.379       .  A
C365        C486   1.437       .  S
C366        H368   1.082       .  S
N369        N370   1.323       .  A
N369        C373   1.346       .  A
N369       Cu377   2.074       .  S
N370        C371   1.345       .  A
N370       Cu376   2.073       .  S
C371        C372   1.379       .  A
C371        H374   1.082       .  S
C372        C373   1.379       .  A
C372        C456   1.437   1_545  S
C373        H375   1.082       .  S
Cu376       N379   2.073       .  S
Cu377       N387   2.074       .  S
Cu378       N380   2.074       .  S
Cu378       N386   2.074       .  S
N379        N380   1.323       .  A
N379        C383   1.345       .  A
N380        C381   1.346       .  A
C381        C382   1.379       .  A
C381        H384   1.082       .  S
C382        C383   1.379       .  A
C382        C444   1.437       .  S
C383        H385   1.082       .  S
N386        N387   1.323       .  A
N386        C390   1.345       .  A
N387        C388   1.346       .  A
C388        C389   1.379       .  A
C388        H391   1.082       .  S
C389        C390   1.379       .  A
C389        C500   1.437       .  S
C390        H392   1.082       .  S
N393        N394   1.323       .  A
N393        C397   1.346       .  A
N393       Cu401   2.074       .  S
N394        C395   1.345       .  A
N394       Cu400   2.072       .  S
C395        C396   1.379       .  A
C395        H398   1.082       .  S
C396        C397   1.379       .  A
C396        C452   1.436   1_545  S
C397        H399   1.082       .  S
Cu400       N403   2.072       .  S
Cu401       N411   2.074       .  S
Cu402       N404   2.073       .  S
Cu402       N410   2.073       .  S
N403        N404   1.323       .  A
N403        C407   1.345       .  A
N404        C405   1.345       .  A
C405        C406   1.379       .  A
C405        H408   1.082       .  S
C406        C407   1.379       .  A
C406        C445   1.437       .  S
C407        H409   1.082       .  S
N410        N411   1.323       .  A
N410        C414   1.345       .  A
N411        C412   1.346       .  A
C412        C413   1.379       .  A
C412        H415   1.082       .  S
C413        C414   1.379       .  A
C413        C490   1.436       .  S
C414        H416   1.082       .  S
N417        N418   1.323       .  A
N417        C421   1.346       .  A
N417       Cu425   2.074       .  S
N418        C419   1.345       .  A
N418       Cu424   2.074       .  S
C419        C420   1.379       .  A
C419        H422   1.082       .  S
C420        C421   1.379       .  A
C420        C482   1.437       .  S
C421        H423   1.082       .  S
Cu424       N427   2.074       .  S
Cu425       N435   2.074       .  S
Cu426       N428   2.074       .  S
Cu426       N434   2.074       .  S
N427        N428   1.323       .  A
N427        C431   1.345       .  A
N428        C429   1.346       .  A
C429        C430   1.379       .  A
C429        H432   1.082       .  S
C430        C431   1.379       .  A
C430        C448   1.437       .  S
C431        H433   1.082       .  S
N434        N435   1.323       .  A
N434        C438   1.345       .  A
N435        C436   1.346       .  A
C436        C437   1.379       .  A
C436        H439   1.082       .  S
C437        C438   1.379       .  A
C437        C450   1.437       .  S
C438        H440   1.082       .  S
C441        C442   1.206       .  T
C443        C444   1.206       .  T
C445        C446   1.206       .  T
C447        C448   1.206       .  T
C449        C450   1.206   1_554  T
C451        C452   1.205   1_554  T
C453        C454   1.206   1_554  T
C455        C456   1.206   1_554  T
C457        C458   1.206       .  T
C459        C460   1.206       .  T
C461        C462   1.206       .  T
C463        C464   1.206       .  T
C465        C466   1.205       .  T
C467        C468   1.206       .  T
C469        C470   1.206       .  T
C471        C472   1.206       .  T
C473        C474   1.206       .  T
C475        C476   1.206       .  T
C477        C478   1.206       .  T
C479        C480   1.206       .  T
C481        C482   1.206       .  T
C483        C484   1.206       .  T
C485        C486   1.206       .  T
C487        C488   1.206       .  T
C489        C490   1.205       .  T
C491        C492   1.206       .  T
C493        C494   1.206       .  T
C495        C496   1.206       .  T
C497        C498   1.206       .  T
C499        C500   1.206       .  T
C501        C502   1.206       .  T
C503        C504   1.206       .  T
