geometry optimzed in LAMMPS
_audit_creation_date              2020-11-30 
_audit_creation_method            'lammps2cif' 
_symmetry_space_group_name_H-M    'P1' 
_symmetry_Int_Tables_number       1 
_symmetry_cell_setting            triclinic 
loop_ 
_symmetry_equiv_pos_as_xyz 
  x,y,z 
_cell_length_a                    39.26602928 
_cell_length_b                    39.28691272247111 
_cell_length_c                    27.076551577222624 
_cell_angle_alpha                 89.97625920625748 
_cell_angle_beta                  89.93129617628777 
_cell_angle_gamma                 120.09077698891959 
loop_ 
_atom_site_label 
_atom_site_type_symbol 
_atom_site_fract_x 
_atom_site_fract_y 
_atom_site_fract_z 
_atom_site_charge 
Fe1        Fe  0.29286891  0.18276712  0.74924585     1.65800
Fe2        Fe  0.31666561  0.10984154  0.74946188     1.73200
Fe3        Fe  0.38972143  0.20674285  0.74938138     1.54400
O4          O  0.38393967  0.24018715  0.69485571    -0.83000
O5          O  0.35604949  0.11574574  0.80375588    -0.81300
O6          O  0.32084446  0.22386461  0.69415268    -0.85500
O7          O  0.32090475  0.22432438  0.80373098    -0.80400
O8          O  0.40311158  0.17876486  0.69475829    -0.82100
O9          O  0.27543928  0.09658912  0.80449249    -0.84900
C10         C  0.35573992  0.24400824  0.82025754     0.95900
C11         C  0.35579080  0.24375201  0.67788673     1.03300
O12         O  0.33308484  0.16644509  0.74935677    -1.13900
O13         O  0.27517931  0.09631639  0.69488002    -0.76300
O14         O  0.25927528  0.14329535  0.69510711    -0.79800
O15         O  0.38384149  0.24014157  0.80376006    -0.80500
C16         C  0.25542557  0.11138940  0.67848818     0.94800
O17         O  0.25955949  0.14362531  0.80395447    -0.78400
O18         O  0.35590989  0.11580771  0.69477931    -0.83600
C19         C  0.38784776  0.14391172  0.82060048     0.97400
C20         C  0.38791966  0.14395359  0.67819378     1.03300
O21         O  0.40294841  0.17878926  0.80421250    -0.79300
C22         C  0.25577218  0.11179513  0.82085030     1.01600
C23         C  0.36195169  0.38702192  0.02949862     0.78900
N24         N  0.35696510  0.35806642  0.99796803    -0.79400
C25         C  0.38600013  0.36312308  0.96641444     0.81300
N26         N  0.42081129  0.39764694  0.96700902    -0.79400
C27         C  0.42604698  0.42711186  0.99801214     0.81400
N28         N  0.39648288  0.42177716  0.02896176    -0.81100
C29         C  0.03535577  0.00028421  0.99978618     0.01800
C30         C  0.03533721  0.03600485  0.00001027    -0.14300
C31         C  0.99971848  0.03625300  0.99943588    -0.00700
C32         C  0.46396711  0.50044758  0.99863859    -0.12900
C33         C  0.46366812  0.46457470  0.99841440     0.01800
C34         C  0.49944331  0.46465171  0.99899975    -0.12300
H35         H  0.06303218  0.06358967  0.00052238     0.07400
H36         H  0.43637853  0.50049267  0.99823152     0.04900
H37         H  0.49933989  0.43700291  0.99883662     0.04800
C38         C  0.47586815  0.11381151  0.96804946     0.78900
N39         N  0.00001272  0.14285948  0.99939216    -0.79400
C40         C  0.02405975  0.13788760  0.03079859     0.81300
N41         N  0.02423874  0.10337381  0.03025939    -0.79400
C42         C  0.99982937  0.07380738  0.99947098     0.81400
N43         N  0.47550838  0.07904081  0.96866881    -0.81100
C44         C  0.11274120  0.47620056  0.03160753     0.78900
N45         N  0.07804658  0.47608187  0.03117398    -0.79400
C46         C  0.07282269  0.00020808  0.99993882     0.81300
N47         N  0.10228376  0.02417778  0.96862636    -0.78400
C48         C  0.13670463  0.02379685  0.96796994     0.81400
N49         N  0.14165386  0.99992742  0.99971533    -0.81100
Fe50       Fe  0.18337855  0.29360620  0.24925985     1.65800
Fe51       Fe  0.11005208  0.31684890  0.24947099     1.73200
Fe52       Fe  0.20673888  0.39027036  0.24935518     1.54400
O53         O  0.23978755  0.38466580  0.30456048    -0.83000
O54         O  0.11571328  0.35655337  0.19570340    -0.81300
O55         O  0.22532039  0.32217338  0.30310756    -0.85500
O56         O  0.22390199  0.32138563  0.19363502    -0.80400
O57         O  0.17816922  0.40350097  0.30361384    -0.82100
O58         O  0.09717457  0.27622805  0.19406170    -0.84900
C59         C  0.24399463  0.35641022  0.17782013     0.95900
C60         C  0.24425936  0.35678338  0.32046288     1.03300
O61         O  0.16673164  0.33358366  0.24937824    -1.13900
O62         O  0.09684777  0.27507984  0.30358654    -0.76300
O63         O  0.14484952  0.26057888  0.30462991    -0.79800
O64         O  0.24074148  0.38456621  0.19542863    -0.80500
C65         C  0.11254536  0.25614066  0.32077342     0.94800
O66         O  0.14356994  0.25951052  0.19562822    -0.78400
O67         O  0.11556195  0.35542382  0.30459863    -0.83600
C68         C  0.14383411  0.38814452  0.17822103     0.97400
C69         C  0.14341659  0.38770727  0.32076411     1.03300
O70         O  0.17891469  0.40314315  0.19386177    -0.79300
C71         C  0.11206817  0.25615972  0.17821740     1.01600
C72         C  0.38603161  0.36288308  0.53147616     0.78900
N73         N  0.35711522  0.35784582  0.49981650    -0.79400
C74         C  0.36219118  0.38689548  0.46831330     0.81300
N75         N  0.39667856  0.42170551  0.46897075    -0.79400
C76         C  0.42612228  0.42697064  0.50000633     0.81400
N77         N  0.42078543  0.39743760  0.53097744    -0.81100
C78         C  0.46377860  0.46437964  0.49977287     0.01800
C79         C  0.46420690  0.00030496  0.49976782    -0.14300
C80         C  0.00003477  0.03603146  0.49957373    -0.00700
C81         C  0.03560068  0.03566256  0.49935180    -0.12900
C82         C  0.03548590  0.99986987  0.49935582     0.01800
C83         C  0.49948847  0.46431923  0.49954046    -0.12300
H84         H  0.43667047  0.50045697  0.49994954     0.07400
H85         H  0.06334235  0.06320457  0.49927195     0.04900
H86         H  0.49926183  0.43660833  0.49958893     0.04800
C87         C  0.47655801  0.11375432  0.53149817     0.78900
N88         N  0.47613603  0.07894901  0.53085758    -0.79400
C89         C  0.00026717  0.07363031  0.49971751     0.81300
N90         N  0.02452473  0.10311896  0.46863120    -0.79400
C91         C  0.02438045  0.13764435  0.46814391     0.81400
N92         N  0.00053616  0.14271421  0.49985332    -0.81100
C93         C  0.11253224  0.47496576  0.46870902     0.78900
N94         N  0.14149446  0.99888218  0.50031231    -0.79400
C95         C  0.13667197  0.02314193  0.53152573     0.81300
N96         N  0.10237060  0.02375309  0.53055939    -0.79400
C97         C  0.07286260  0.99958447  0.49955204     0.81400
N98         N  0.07794331  0.47505011  0.46891130    -0.81100
C99         C  0.07955135  0.16877520  0.40650967    -0.14700
C100        C  0.04861785  0.16903250  0.43229855     0.07500
C101        C  0.04011190  0.19915114  0.42258717    -0.14700
C102        C  0.06129530  0.22773362  0.38694998    -0.14700
C103        C  0.09181254  0.22717741  0.36056786     0.07500
C104        C  0.10114390  0.19775338  0.37122564    -0.14700
H105        H  0.08692137  0.14606877  0.41336751     0.11500
H106        H  0.01642384  0.20019679  0.44173367     0.11500
H107        H  0.05353260  0.25012655  0.37979263     0.11500
H108        H  0.12447981  0.19652600  0.35141706     0.11500
C109        C  0.09626452  0.39988361  0.36970918    -0.14700
C110        C  0.13496597  0.40815284  0.36066155     0.07500
C111        C  0.16575591  0.43714313  0.38899828    -0.14700
C112        C  0.15817342  0.45792664  0.42496844    -0.14700
C113        C  0.11967350  0.45063479  0.43299724     0.07500
C114        C  0.08872206  0.42110833  0.40528930    -0.14700
H115        H  0.07192108  0.37772074  0.34837082     0.11500
H116        H  0.19583134  0.44397422  0.38315432     0.11500
H117        H  0.18274645  0.48043747  0.44564348     0.11500
H118        H  0.05873327  0.41465422  0.41073314     0.11500
C119        C  0.30202874  0.40371895  0.37198158    -0.14700
C120        C  0.27317331  0.36490342  0.36025003     0.07500
C121        C  0.27305897  0.33368191  0.38568774    -0.14700
C122        C  0.30144808  0.34101449  0.42148455    -0.14700
C123        C  0.33095769  0.37973133  0.43231556     0.07500
C124        C  0.33082502  0.41105016  0.40742065    -0.14700
H125        H  0.30292068  0.42840956  0.35296642     0.11500
H126        H  0.25114908  0.30345858  0.37769375     0.11500
H127        H  0.30075781  0.31618987  0.43987160     0.11500
H128        H  0.35306481  0.44119956  0.41515291     0.11500
C129        C  0.08918701  0.42313463  0.09624730    -0.14700
C130        C  0.11991855  0.45193926  0.06740333     0.07500
C131        C  0.15822667  0.45830065  0.07395932    -0.14700
C132        C  0.16584132  0.43717552  0.10938831    -0.14700
C133        C  0.13527499  0.40882383  0.13874155     0.07500
C134        C  0.09675214  0.40160166  0.13133410    -0.14700
H135        H  0.05935231  0.41742506  0.09201282     0.11500
H136        H  0.18264142  0.48023373  0.05239068     0.11500
H137        H  0.19577351  0.44323925  0.11400676     0.11500
H138        H  0.07259264  0.38000688  0.15355222     0.11500
C139        C  0.07860937  0.16839708  0.09317481    -0.14700
C140        C  0.04840861  0.16931098  0.06649759     0.07500
C141        C  0.04060171  0.20001389  0.07539170    -0.14700
C142        C  0.06166893  0.22847086  0.11112433    -0.14700
C143        C  0.09138822  0.22721456  0.13844551     0.07500
C144        C  0.10006440  0.19721754  0.12858716    -0.14700
H145        H  0.08546173  0.14524956  0.08699477     0.11500
H146        H  0.01751772  0.20161948  0.05554986     0.11500
H147        H  0.05442376  0.25131366  0.11762027     0.11500
H148        H  0.12279129  0.19544309  0.14908231     0.11500
C149        C  0.29981687  0.34124776  0.07431617    -0.14700
C150        C  0.33058873  0.37981997  0.06542278     0.07500
C151        C  0.33166775  0.41090981  0.09234543    -0.14700
C152        C  0.30293142  0.40346582  0.12798642    -0.14700
C153        C  0.27285244  0.36473837  0.13783011     0.07500
C154        C  0.27143288  0.33377682  0.11028126    -0.14700
H155        H  0.29810009  0.31658216  0.05428717     0.11500
H156        H  0.35488213  0.44095763  0.08617906     0.11500
H157        H  0.30483327  0.42794967  0.14866144     0.11500
H158        H  0.24851872  0.30364372  0.11677241     0.11500
C159        C  0.22845929  0.06225184  0.88912423    -0.14700
C160        C  0.22660990  0.09106209  0.86047429     0.07500
C161        C  0.19569986  0.09871079  0.86868451    -0.14700
C162        C  0.16661993  0.07718748  0.90389031    -0.14700
C163        C  0.16817590  0.04795807  0.93205907     0.07500
C164        C  0.19972563  0.04112070  0.92469909    -0.14700
H165        H  0.25202391  0.05584178  0.88384210     0.11500
H166        H  0.19341868  0.12065479  0.84701063     0.11500
H167        H  0.14280062  0.08326256  0.90876949     0.11500
H168        H  0.20187334  0.01882444  0.94573284     0.11500
C169        C  0.19590498  0.09879747  0.62976072    -0.14700
C170        C  0.22623788  0.09048477  0.63902210     0.07500
C171        C  0.22762978  0.06098986  0.61136568    -0.14700
C172        C  0.19905753  0.03987879  0.57574463    -0.14700
C173        C  0.16808675  0.04739468  0.56733086     0.07500
C174        C  0.16696915  0.07729380  0.59448567    -0.14700
H175        H  0.19399437  0.12131020  0.65058987     0.11500
H176        H  0.25072331  0.05402630  0.61744377     0.11500
H177        H  0.20083819  0.01703691  0.55554255     0.11500
H178        H  0.14360777  0.08391298  0.58874618     0.11500
C179        C  0.43908081  0.16689950  0.88670092    -0.14700
C180        C  0.40862553  0.13575795  0.86034749     0.07500
C181        C  0.39926970  0.09698543  0.87115815    -0.14700
C182        C  0.42072614  0.08965482  0.90657465    -0.14700
C183        C  0.45160735  0.12091592  0.93231185     0.07500
C184        C  0.46014900  0.15955365  0.92245095    -0.14700
H185        H  0.44689477  0.19707572  0.87943959     0.11500
H186        H  0.37596794  0.07234899  0.85143549     0.11500
H187        H  0.41330983  0.05955879  0.91354240     0.11500
H188        H  0.48380205  0.18434461  0.94153649     0.11500
C189        C  0.39954812  0.09704171  0.62798784    -0.14700
C190        C  0.40892008  0.13582464  0.63866593     0.07500
C191        C  0.43970742  0.16697738  0.61257715    -0.14700
C192        C  0.46101395  0.15960792  0.57713433    -0.14700
C193        C  0.45236123  0.12093493  0.56731685     0.07500
C194        C  0.42123949  0.08968745  0.59289370    -0.14700
H195        H  0.37603087  0.07240493  0.64756440     0.11500
H196        H  0.44757961  0.19716761  0.61979688     0.11500
H197        H  0.48487709  0.18439034  0.55818561     0.11500
H198        H  0.41375143  0.05957362  0.58596210     0.11500
C199        C  0.40266501  0.30377915  0.62967316    -0.14700
C200        C  0.36408623  0.27287661  0.63829064     0.07500
C201        C  0.33319480  0.27102928  0.61014855    -0.14700
C202        C  0.34056752  0.29977137  0.57476354    -0.14700
C203        C  0.37895981  0.33133771  0.56706115     0.07500
C204        C  0.40999611  0.33287130  0.59464216    -0.14700
H205        H  0.42707604  0.30605522  0.65090992     0.11500
H206        H  0.30318916  0.24748520  0.61573748     0.11500
H207        H  0.31593925  0.29764707  0.55419813     0.11500
H208        H  0.43991363  0.35669433  0.58945161     0.11500
C209        C  0.33309364  0.27141206  0.88780620    -0.14700
C210        C  0.36399308  0.27320632  0.85965097     0.07500
C211        C  0.40259330  0.30404074  0.86818402    -0.14700
C212        C  0.40995397  0.33311316  0.90319060    -0.14700
C213        C  0.37892151  0.33162299  0.93082070     0.07500
C214        C  0.34049443  0.30012553  0.92317891    -0.14700
H215        H  0.30307867  0.24790495  0.88228615     0.11500
H216        H  0.42700672  0.30626421  0.84691709     0.11500
H217        H  0.43988723  0.35688078  0.90832913     0.11500
H218        H  0.31586179  0.29802293  0.94379732     0.11500
Fe219      Fe  0.29286905  0.68276704  0.74924579     1.65800
Fe220      Fe  0.31666577  0.60984151  0.74946181     1.73200
Fe221      Fe  0.38972148  0.70674281  0.74938127     1.54400
O222        O  0.38393964  0.74018717  0.69485573    -0.83000
O223        O  0.35604969  0.61574576  0.80375588    -0.81300
O224        O  0.32084454  0.72386456  0.69415260    -0.85500
O225        O  0.32090491  0.72432442  0.80373093    -0.80400
O226        O  0.40311168  0.67876486  0.69475809    -0.82100
O227        O  0.27543937  0.59658897  0.80449244    -0.84900
C228        C  0.35574013  0.74400840  0.82025730     0.95900
C229        C  0.35579080  0.74375197  0.67788666     1.03300
O230        O  0.33308489  0.66644498  0.74935685    -1.13900
O231        O  0.27517955  0.59631636  0.69487991    -0.76300
O232        O  0.25927534  0.64329522  0.69510704    -0.79800
O233        O  0.38384158  0.74014146  0.80375996    -0.80500
C234        C  0.25542577  0.61138936  0.67848805     0.94800
O235        O  0.25955962  0.64362522  0.80395455    -0.78400
O236        O  0.35591014  0.61580763  0.69477924    -0.83600
C237        C  0.38784791  0.64391179  0.82060054     0.97400
C238        C  0.38791981  0.64395357  0.67819358     1.03300
O239        O  0.40294862  0.67878931  0.80421238    -0.79300
C240        C  0.25577230  0.61179499  0.82085034     1.01600
C241        C  0.36195161  0.88702185  0.02949864     0.78900
N242        N  0.35696497  0.85806632  0.99796805    -0.79400
C243        C  0.38600002  0.86312300  0.96641442     0.81300
N244        N  0.42081114  0.89764689  0.96700899    -0.79400
C245        C  0.42604683  0.92711183  0.99801207     0.81400
N246        N  0.39648278  0.92177710  0.02896173    -0.81100
C247        C  0.03535603  0.50028449  0.99978623     0.01800
C248        C  0.03533754  0.53600510  0.00001043    -0.14300
C249        C  0.99971877  0.53625324  0.99943588    -0.00700
C250        C  0.46396707  0.00044760  0.99863859    -0.12900
C251        C  0.46366808  0.96457459  0.99841440     0.01800
C252        C  0.49944321  0.96465156  0.99899962    -0.12300
H253        H  0.06303283  0.56359005  0.00052244     0.07400
H254        H  0.43637863  0.00049274  0.99823154     0.04900
H255        H  0.49933981  0.93700240  0.99883662     0.04800
C256        C  0.47586815  0.61381140  0.96804957     0.78900
N257        N  0.00001272  0.64285941  0.99939219    -0.79400
C258        C  0.02405981  0.63788758  0.03079851     0.81300
N259        N  0.02423881  0.60337384  0.03025932    -0.79400
C260        C  0.99982944  0.57380744  0.99947094     0.81400
N261        N  0.47550839  0.57904070  0.96866892    -0.81100
C262        C  0.11274100  0.97620049  0.03160743     0.78900
N263        N  0.07804638  0.97608178  0.03117387    -0.79400
C264        C  0.07282287  0.50020810  0.99993882     0.81300
N265        N  0.10228402  0.52417783  0.96862647    -0.78400
C266        C  0.13670482  0.52379677  0.96797004     0.81400
N267        N  0.14165401  0.49992736  0.99971544    -0.81100
Fe268      Fe  0.18337845  0.79360622  0.24925976     1.65800
Fe269      Fe  0.11005196  0.81684893  0.24947097     1.73200
Fe270      Fe  0.20673878  0.89027041  0.24935511     1.54400
O271        O  0.23978740  0.88466582  0.30456044    -0.83000
O272        O  0.11571326  0.85655344  0.19570349    -0.81300
O273        O  0.22532019  0.82217337  0.30310748    -0.85500
O274        O  0.22390184  0.82138562  0.19363490    -0.80400
O275        O  0.17816917  0.90350103  0.30361360    -0.82100
O276        O  0.09717446  0.77622800  0.19406153    -0.84900
C277        C  0.24399451  0.85641025  0.17782010     0.95900
C278        C  0.24425923  0.85678339  0.32046275     1.03300
O279        O  0.16673150  0.83358372  0.24937824    -1.13900
O280        O  0.09684777  0.77507996  0.30358649    -0.76300
O281        O  0.14484944  0.76057889  0.30462986    -0.79800
O282        O  0.24074147  0.88456627  0.19542874    -0.80500
C283        C  0.11254531  0.75614073  0.32077334     0.94800
O284        O  0.14356987  0.75951052  0.19562818    -0.78400
O285        O  0.11556192  0.85542385  0.30459868    -0.83600
C286        C  0.14383406  0.88814443  0.17822084     0.97400
C287        C  0.14341658  0.88770733  0.32076403     1.03300
O288        O  0.17891459  0.90314305  0.19386167    -0.79300
C289        C  0.11206813  0.75615970  0.17821730     1.01600
C290        C  0.38603142  0.86288305  0.53147609     0.78900
N291        N  0.35711508  0.85784574  0.49981634    -0.79400
C292        C  0.36219110  0.88689543  0.46831319     0.81300
N293        N  0.39667852  0.92170545  0.46897064    -0.79400
C294        C  0.42612223  0.92697063  0.50000621     0.81400
N295        N  0.42078526  0.89743761  0.53097738    -0.81100
C296        C  0.46377859  0.96437966  0.49977280     0.01800
C297        C  0.46420690  0.50030491  0.49976783    -0.14300
C298        C  0.00003492  0.53603147  0.49957375    -0.00700
C299        C  0.03560074  0.53566256  0.49935173    -0.12900
C300        C  0.03548602  0.49986985  0.49935567     0.01800
C301        C  0.49948845  0.96431933  0.49954050    -0.12300
H302        H  0.43667042  0.00045701  0.49994948     0.07400
H303        H  0.06334243  0.56320455  0.49927226     0.04900
H304        H  0.49926196  0.93660834  0.49958899     0.04800
C305        C  0.47655823  0.61375435  0.53149822     0.78900
N306        N  0.47613620  0.57894902  0.53085750    -0.79400
C307        C  0.00026734  0.57363034  0.49971746     0.81300
N308        N  0.02452497  0.60311903  0.46863125    -0.79400
C309        C  0.02438071  0.63764445  0.46814400     0.81400
N310        N  0.00053638  0.64271429  0.49985332    -0.81100
C311        C  0.11253224  0.97496596  0.46870897     0.78900
N312        N  0.14149445  0.49888205  0.50031228    -0.79400
C313        C  0.13667205  0.52314198  0.53152557     0.81300
N314        N  0.10237075  0.52375320  0.53055930    -0.79400
C315        C  0.07286274  0.49958452  0.49955199     0.81400
N316        N  0.07794320  0.97505013  0.46891135    -0.81100
C317        C  0.07955159  0.66877546  0.40650971    -0.14700
C318        C  0.04861810  0.66903257  0.43229854     0.07500
C319        C  0.04011212  0.69915123  0.42258724    -0.14700
C320        C  0.06129543  0.72773385  0.38694997    -0.14700
C321        C  0.09181252  0.72717764  0.36056787     0.07500
C322        C  0.10114407  0.69775375  0.37122562    -0.14700
H323        H  0.08692200  0.64606948  0.41336744     0.11500
H324        H  0.01642431  0.70019673  0.44173363     0.11500
H325        H  0.05353238  0.75012651  0.37979234     0.11500
H326        H  0.12447970  0.69652653  0.35141710     0.11500
C327        C  0.09626436  0.89988359  0.36970914    -0.14700
C328        C  0.13496571  0.90815281  0.36066142     0.07500
C329        C  0.16575569  0.93714319  0.38899814    -0.14700
C330        C  0.15817340  0.95792688  0.42496819    -0.14700
C331        C  0.11967353  0.95063499  0.43299728     0.07500
C332        C  0.08872195  0.92110844  0.40528924    -0.14700
H333        H  0.07192067  0.87772021  0.34837076     0.11500
H334        H  0.19583073  0.94397362  0.38315462     0.11500
H335        H  0.18274688  0.98043799  0.44564290     0.11500
H336        H  0.05873325  0.91465429  0.41073352     0.11500
C337        C  0.30202872  0.90371908  0.37198138    -0.14700
C338        C  0.27317329  0.86490353  0.36024982     0.07500
C339        C  0.27305888  0.83368197  0.38568767    -0.14700
C340        C  0.30144803  0.84101448  0.42148454    -0.14700
C341        C  0.33095768  0.87973136  0.43231540     0.07500
C342        C  0.33082502  0.91105025  0.40742046    -0.14700
H343        H  0.30292093  0.92840980  0.35296559     0.11500
H344        H  0.25114890  0.80345870  0.37769363     0.11500
H345        H  0.30075788  0.81619000  0.43987166     0.11500
H346        H  0.35306479  0.94119968  0.41515312     0.11500
C347        C  0.08918658  0.92313443  0.09624720    -0.14700
C348        C  0.11991811  0.95193901  0.06740326     0.07500
C349        C  0.15822616  0.95830047  0.07395917    -0.14700
C350        C  0.16584092  0.93717535  0.10938804    -0.14700
C351        C  0.13527472  0.90882386  0.13874156     0.07500
C352        C  0.09675177  0.90160138  0.13133393    -0.14700
H353        H  0.05935195  0.91742499  0.09201275     0.11500
H354        H  0.18264055  0.98023303  0.05239025     0.11500
H355        H  0.19577291  0.94323953  0.11400656     0.11500
H356        H  0.07259255  0.88000715  0.15355266     0.11500
C357        C  0.07860973  0.66839703  0.09317455    -0.14700
C358        C  0.04840870  0.66931074  0.06649758     0.07500
C359        C  0.04060187  0.70001374  0.07539170    -0.14700
C360        C  0.06166903  0.72847068  0.11112438    -0.14700
C361        C  0.09138838  0.72721438  0.13844555     0.07500
C362        C  0.10006472  0.69721745  0.12858696    -0.14700
H363        H  0.08546189  0.64524892  0.08699467     0.11500
H364        H  0.01751786  0.70161952  0.05555014     0.11500
H365        H  0.05442330  0.75131275  0.11762082     0.11500
H366        H  0.12279198  0.69544315  0.14908217     0.11500
C367        C  0.29981694  0.84124806  0.07431627    -0.14700
C368        C  0.33058887  0.87982033  0.06542286     0.07500
C369        C  0.33166796  0.91091009  0.09234540    -0.14700
C370        C  0.30293156  0.90346601  0.12798640    -0.14700
C371        C  0.27285241  0.86473841  0.13783014     0.07500
C372        C  0.27143287  0.83377696  0.11028132    -0.14700
H373        H  0.29810017  0.81658280  0.05428741     0.11500
H374        H  0.35488261  0.94095838  0.08617852     0.11500
H375        H  0.30483324  0.92794967  0.14866149     0.11500
H376        H  0.24851898  0.80364374  0.11677239     0.11500
C377        C  0.22845931  0.56225147  0.88912429    -0.14700
C378        C  0.22661004  0.59106203  0.86047437     0.07500
C379        C  0.19570014  0.59871078  0.86868461    -0.14700
C380        C  0.16662030  0.57718747  0.90389047    -0.14700
C381        C  0.16817617  0.54795777  0.93205928     0.07500
C382        C  0.19972574  0.54112027  0.92469920    -0.14700
H383        H  0.25202391  0.55584154  0.88384169     0.11500
H384        H  0.19341898  0.62065502  0.84701040     0.11500
H385        H  0.14280108  0.58326260  0.90876996     0.11500
H386        H  0.20187338  0.51882339  0.94573333     0.11500
C387        C  0.19590507  0.59879745  0.62976055    -0.14700
C388        C  0.22623814  0.59048479  0.63902185     0.07500
C389        C  0.22763000  0.56098996  0.61136528    -0.14700
C390        C  0.19905760  0.53987893  0.57574439    -0.14700
C391        C  0.16808670  0.54739475  0.56733070     0.07500
C392        C  0.16696915  0.57729377  0.59448562    -0.14700
H393        H  0.19399450  0.62131010  0.65058991     0.11500
H394        H  0.25072349  0.55402615  0.61744324     0.11500
H395        H  0.20083829  0.51703716  0.55554207     0.11500
H396        H  0.14360726  0.58391286  0.58874643     0.11500
C397        C  0.43908082  0.66689935  0.88670106    -0.14700
C398        C  0.40862572  0.63575804  0.86034770     0.07500
C399        C  0.39926978  0.59698543  0.87115849    -0.14700
C400        C  0.42072618  0.58965470  0.90657505    -0.14700
C401        C  0.45160726  0.62091554  0.93231210     0.07500
C402        C  0.46014890  0.65955332  0.92245112    -0.14700
H403        H  0.44689499  0.69707544  0.87943991     0.11500
H404        H  0.37596814  0.57234961  0.85143648     0.11500
H405        H  0.41330986  0.55955816  0.91354222     0.11500
H406        H  0.48380187  0.68434415  0.94153610     0.11500
C407        C  0.39954829  0.59704170  0.62798781    -0.14700
C408        C  0.40892021  0.63582461  0.63866577     0.07500
C409        C  0.43970737  0.66697729  0.61257693    -0.14700
C410        C  0.46101390  0.65960779  0.57713422    -0.14700
C411        C  0.45236124  0.62093482  0.56731673     0.07500
C412        C  0.42123968  0.58968740  0.59289375    -0.14700
H413        H  0.37603117  0.57240501  0.64756452     0.11500
H414        H  0.44757969  0.69716744  0.61979662     0.11500
H415        H  0.48487641  0.68439011  0.55818515     0.11500
H416        H  0.41375172  0.55957359  0.58596245     0.11500
C417        C  0.40266488  0.80377920  0.62967320    -0.14700
C418        C  0.36408615  0.77287650  0.63829064     0.07500
C419        C  0.33319468  0.77102915  0.61014850    -0.14700
C420        C  0.34056728  0.79977118  0.57476352    -0.14700
C421        C  0.37895949  0.83133762  0.56706118     0.07500
C422        C  0.40999588  0.83287134  0.59464212    -0.14700
H423        H  0.42707616  0.80605573  0.65091026     0.11500
H424        H  0.30318880  0.74748486  0.61573728     0.11500
H425        H  0.31593900  0.79764679  0.55419805     0.11500
H426        H  0.43991298  0.85669432  0.58945131     0.11500
C427        C  0.33309370  0.77141204  0.88780612    -0.14700
C428        C  0.36399332  0.77320648  0.85965093     0.07500
C429        C  0.40259339  0.80404097  0.86818391    -0.14700
C430        C  0.40995397  0.83311331  0.90319055    -0.14700
C431        C  0.37892144  0.83162294  0.93082074     0.07500
C432        C  0.34049448  0.80012552  0.92317894    -0.14700
H433        H  0.30307926  0.74790480  0.88228619     0.11500
H434        H  0.42700680  0.80626443  0.84691688     0.11500
H435        H  0.43988723  0.85688090  0.90832946     0.11500
H436        H  0.31586172  0.79802267  0.94379801     0.11500
Fe437      Fe  0.79286894  0.18276710  0.74924587     1.65800
Fe438      Fe  0.81666564  0.10984158  0.74946189     1.73200
Fe439      Fe  0.88972143  0.20674286  0.74938132     1.54400
O440        O  0.88393953  0.24018712  0.69485565    -0.83000
O441        O  0.85604957  0.11574573  0.80375592    -0.81300
O442        O  0.82084442  0.22386457  0.69415274    -0.85500
O443        O  0.82090466  0.22432436  0.80373099    -0.80400
O444        O  0.90311163  0.17876487  0.69475821    -0.82100
O445        O  0.77543930  0.09658911  0.80449259    -0.84900
C446        C  0.85573989  0.24400824  0.82025752     0.95900
C447        C  0.85579069  0.24375198  0.67788674     1.03300
O448        O  0.83308482  0.16644512  0.74935677    -1.13900
O449        O  0.77517935  0.09631647  0.69487993    -0.76300
O450        O  0.75927531  0.14329531  0.69510717    -0.79800
O451        O  0.88384155  0.24014159  0.80376011    -0.80500
C452        C  0.75542555  0.11138939  0.67848818     0.94800
O453        O  0.75955952  0.14362531  0.80395447    -0.78400
O454        O  0.85590995  0.11580772  0.69477927    -0.83600
C455        C  0.88784779  0.14391173  0.82060055     0.97400
C456        C  0.88791967  0.14395360  0.67819368     1.03300
O457        O  0.90294846  0.17878923  0.80421240    -0.79300
C458        C  0.75577219  0.11179510  0.82085035     1.01600
C459        C  0.86195170  0.38702196  0.02949865     0.78900
N460        N  0.85696510  0.35806646  0.99796805    -0.79400
C461        C  0.88600011  0.36312308  0.96641443     0.81300
N462        N  0.92081124  0.39764694  0.96700894    -0.79400
C463        C  0.92604702  0.42711184  0.99801220     0.81400
N464        N  0.89648289  0.42177717  0.02896183    -0.81100
C465        C  0.53535586  0.00028426  0.99978618     0.01800
C466        C  0.53533734  0.03600492  0.00001027    -0.14300
C467        C  0.49971863  0.03625314  0.99943586    -0.00700
C468        C  0.96396718  0.50044766  0.99863859    -0.12900
C469        C  0.96366819  0.46457472  0.99841434     0.01800
C470        C  0.99944336  0.46465171  0.99899976    -0.12300
H471        H  0.56303261  0.06358985  0.00052239     0.07400
H472        H  0.93637870  0.50049277  0.99823151     0.04900
H473        H  0.99934002  0.43700295  0.99883663     0.04800
C474        C  0.97586815  0.11381150  0.96804954     0.78900
N475        N  0.50001269  0.14285942  0.99939231    -0.79400
C476        C  0.52405975  0.13788756  0.03079873     0.81300
N477        N  0.52423874  0.10337379  0.03025942    -0.79400
C478        C  0.49982935  0.07380740  0.99947095     0.81400
N479        N  0.97550840  0.07904081  0.96866890    -0.81100
C480        C  0.61274117  0.47620053  0.03160755     0.78900
N481        N  0.57804656  0.47608189  0.03117396    -0.79400
C482        C  0.57282275  0.00020805  0.99993878     0.81300
N483        N  0.60228383  0.02417778  0.96862634    -0.78400
C484        C  0.63670467  0.02379683  0.96796996     0.81400
N485        N  0.64165387  0.99992740  0.99971536    -0.81100
Fe486      Fe  0.68337854  0.29360620  0.24925984     1.65800
Fe487      Fe  0.61005208  0.31684890  0.24947100     1.73200
Fe488      Fe  0.70673892  0.39027037  0.24935516     1.54400
O489        O  0.73978759  0.38466579  0.30456045    -0.83000
O490        O  0.61571338  0.35655346  0.19570350    -0.81300
O491        O  0.72532035  0.32217335  0.30310751    -0.85500
O492        O  0.72390195  0.32138557  0.19363497    -0.80400
O493        O  0.67816934  0.40350100  0.30361372    -0.82100
O494        O  0.59717458  0.27622803  0.19406168    -0.84900
C495        C  0.74399460  0.35641019  0.17782016     0.95900
C496        C  0.74425940  0.35678335  0.32046277     1.03300
O497        O  0.66673169  0.33358368  0.24937825    -1.13900
O498        O  0.59684764  0.27507985  0.30358652    -0.76300
O499        O  0.64484941  0.26057892  0.30462992    -0.79800
O500        O  0.74074155  0.38456622  0.19542878    -0.80500
C501        C  0.61254522  0.25614065  0.32077336     0.94800
O502        O  0.64356988  0.25951057  0.19562826    -0.78400
O503        O  0.61556191  0.35542382  0.30459866    -0.83600
C504        C  0.64383417  0.38814453  0.17822097     0.97400
C505        C  0.64341668  0.38770727  0.32076408     1.03300
O506        O  0.67891474  0.40314312  0.19386171    -0.79300
C507        C  0.61206816  0.25615970  0.17821741     1.01600
C508        C  0.88603161  0.36288304  0.53147614     0.78900
N509        N  0.85711527  0.35784588  0.49981655    -0.79400
C510        C  0.86219119  0.38689554  0.46831338     0.81300
N511        N  0.89667858  0.42170550  0.46897064    -0.79400
C512        C  0.92612228  0.42697058  0.50000624     0.81400
N513        N  0.92078540  0.39743755  0.53097743    -0.81100
C514        C  0.96377860  0.46437949  0.49977287     0.01800
C515        C  0.96420660  0.00030482  0.49976782    -0.14300
C516        C  0.50003505  0.03603172  0.49957377    -0.00700
C517        C  0.53560079  0.03566271  0.49935181    -0.12900
C518        C  0.53548603  0.99987005  0.49935582     0.01800
C519        C  0.99948854  0.46431915  0.49954048    -0.12300
H520        H  0.93667038  0.50045683  0.49994952     0.07400
H521        H  0.56334309  0.06320518  0.49927196     0.04900
H522        H  0.99926211  0.43660816  0.49958894     0.04800
C523        C  0.97655807  0.11375434  0.53149831     0.78900
N524        N  0.97613599  0.07894899  0.53085755    -0.79400
C525        C  0.50026717  0.07363038  0.49971755     0.81300
N526        N  0.52452478  0.10311903  0.46863133    -0.79400
C527        C  0.52438045  0.13764437  0.46814390     0.81400
N528        N  0.50053622  0.14271424  0.49985328    -0.81100
C529        C  0.61253230  0.47496578  0.46870903     0.78900
N530        N  0.64149440  0.99888217  0.50031232    -0.79400
C531        C  0.63667190  0.02314193  0.53152577     0.81300
N532        N  0.60237058  0.02375312  0.53055943    -0.79400
C533        C  0.57286258  0.99958449  0.49955204     0.81400
N534        N  0.57794335  0.47505008  0.46891129    -0.81100
C535        C  0.57955132  0.16877519  0.40650968    -0.14700
C536        C  0.54861803  0.16903247  0.43229855     0.07500
C537        C  0.54011201  0.19915110  0.42258719    -0.14700
C538        C  0.56129537  0.22773373  0.38694995    -0.14700
C539        C  0.59181244  0.22717750  0.36056789     0.07500
C540        C  0.60114386  0.19775343  0.37122563    -0.14700
H541        H  0.58692150  0.14606879  0.41336756     0.11500
H542        H  0.51642429  0.20019653  0.44173370     0.11500
H543        H  0.55353255  0.25012663  0.37979258     0.11500
H544        H  0.62447939  0.19652602  0.35141707     0.11500
C545        C  0.59626463  0.39988367  0.36970923    -0.14700
C546        C  0.63496602  0.40815285  0.36066149     0.07500
C547        C  0.66575591  0.43714305  0.38899825    -0.14700
C548        C  0.65817349  0.45792661  0.42496843    -0.14700
C549        C  0.61967362  0.45063483  0.43299730     0.07500
C550        C  0.58872214  0.42110839  0.40528938    -0.14700
H551        H  0.57192118  0.37772082  0.34837072     0.11500
H552        H  0.69583124  0.44397405  0.38315423     0.11500
H553        H  0.68274660  0.48043742  0.44564342     0.11500
H554        H  0.55873344  0.41465435  0.41073328     0.11500
C555        C  0.80202873  0.40371891  0.37198148    -0.14700
C556        C  0.77317337  0.36490340  0.36024992     0.07500
C557        C  0.77305905  0.33368194  0.38568781    -0.14700
C558        C  0.80144818  0.34101456  0.42148472    -0.14700
C559        C  0.83095775  0.37973134  0.43231564     0.07500
C560        C  0.83082504  0.41105015  0.40742065    -0.14700
H561        H  0.80292075  0.42840948  0.35296621     0.11500
H562        H  0.75114951  0.30345868  0.37769364     0.11500
H563        H  0.80075787  0.31618998  0.43987188     0.11500
H564        H  0.85306451  0.44119949  0.41515307     0.11500
C565        C  0.58918672  0.42313450  0.09624737    -0.14700
C566        C  0.61991824  0.45193910  0.06740345     0.07500
C567        C  0.65822646  0.45830058  0.07395936    -0.14700
C568        C  0.66584128  0.43717555  0.10938828    -0.14700
C569        C  0.63527493  0.40882387  0.13874155     0.07500
C570        C  0.59675188  0.40160157  0.13133411    -0.14700
H571        H  0.55935164  0.41742492  0.09201294     0.11500
H572        H  0.68264094  0.48023366  0.05239079     0.11500
H573        H  0.69577353  0.44323944  0.11400662     0.11500
H574        H  0.57259245  0.38000673  0.15355224     0.11500
C575        C  0.57860959  0.16839693  0.09317492    -0.14700
C576        C  0.54840889  0.16931090  0.06649773     0.07500
C577        C  0.54060198  0.20001387  0.07539189    -0.14700
C578        C  0.56166919  0.22847087  0.11112443    -0.14700
C579        C  0.59138841  0.22721450  0.13844557     0.07500
C580        C  0.60006463  0.19721740  0.12858721    -0.14700
H581        H  0.58546199  0.14524921  0.08699456     0.11500
H582        H  0.51751838  0.20161958  0.05555016     0.11500
H583        H  0.55442391  0.25131368  0.11762020     0.11500
H584        H  0.62279185  0.19544306  0.14908241     0.11500
C585        C  0.79981697  0.34124783  0.07431616    -0.14700
C586        C  0.83058872  0.37982002  0.06542277     0.07500
C587        C  0.83166778  0.41090985  0.09234541    -0.14700
C588        C  0.80293142  0.40346582  0.12798639    -0.14700
C589        C  0.77285245  0.36473837  0.13783016     0.07500
C590        C  0.77143294  0.33377683  0.11028126    -0.14700
H591        H  0.79810015  0.31658234  0.05428698     0.11500
H592        H  0.85488207  0.44095766  0.08617887     0.11500
H593        H  0.80483318  0.42794971  0.14866116     0.11500
H594        H  0.74851913  0.30364376  0.11677254     0.11500
C595        C  0.72845922  0.06225185  0.88912429    -0.14700
C596        C  0.72660978  0.09106211  0.86047428     0.07500
C597        C  0.69569989  0.09871080  0.86868450    -0.14700
C598        C  0.66661991  0.07718746  0.90389032    -0.14700
C599        C  0.66817595  0.04795800  0.93205917     0.07500
C600        C  0.69972558  0.04112066  0.92469913    -0.14700
H601        H  0.75202339  0.05584188  0.88384210     0.11500
H602        H  0.69341880  0.12065486  0.84701049     0.11500
H603        H  0.64280070  0.08326252  0.90876952     0.11500
H604        H  0.70187365  0.01882436  0.94573295     0.11500
C605        C  0.69590501  0.09879750  0.62976074    -0.14700
C606        C  0.72623787  0.09048476  0.63902209     0.07500
C607        C  0.72762983  0.06098981  0.61136563    -0.14700
C608        C  0.69905748  0.03987879  0.57574461    -0.14700
C609        C  0.66808676  0.04739469  0.56733087     0.07500
C610        C  0.66696924  0.07729381  0.59448575    -0.14700
H611        H  0.69399436  0.12131027  0.65058978     0.11500
H612        H  0.75072326  0.05402622  0.61744374     0.11500
H613        H  0.70083804  0.01703686  0.55554232     0.11500
H614        H  0.64360788  0.08391299  0.58874637     0.11500
C615        C  0.93908081  0.16689945  0.88670106    -0.14700
C616        C  0.90862565  0.13575792  0.86034749     0.07500
C617        C  0.89926975  0.09698536  0.87115826    -0.14700
C618        C  0.92072627  0.08965485  0.90657480    -0.14700
C619        C  0.95160743  0.12091590  0.93231193     0.07500
C620        C  0.96014903  0.15955361  0.92245111    -0.14700
H621        H  0.94689506  0.19707558  0.87943943     0.11500
H622        H  0.87596842  0.07234902  0.85143543     0.11500
H623        H  0.91331029  0.05955877  0.91354224     0.11500
H624        H  0.98380199  0.18434455  0.94153671     0.11500
C625        C  0.89954802  0.09704168  0.62798777    -0.14700
C626        C  0.90892004  0.13582461  0.63866589     0.07500
C627        C  0.93970732  0.16697730  0.61257719    -0.14700
C628        C  0.96101387  0.15960781  0.57713447    -0.14700
C629        C  0.95236108  0.12093483  0.56731687     0.07500
C630        C  0.92123942  0.08968738  0.59289371    -0.14700
H631        H  0.87603069  0.07240493  0.64756416     0.11500
H632        H  0.94757991  0.19716750  0.61979709     0.11500
H633        H  0.98487658  0.18439010  0.55818565     0.11500
H634        H  0.91375131  0.05957358  0.58596205     0.11500
C635        C  0.90266483  0.30377904  0.62967321    -0.14700
C636        C  0.86408605  0.27287648  0.63829065     0.07500
C637        C  0.83319457  0.27102917  0.61014856    -0.14700
C638        C  0.84056733  0.29977127  0.57476355    -0.14700
C639        C  0.87895955  0.33133760  0.56706123     0.07500
C640        C  0.90999585  0.33287115  0.59464215    -0.14700
H641        H  0.92707605  0.30605529  0.65090995     0.11500
H642        H  0.80318868  0.24748511  0.61573760     0.11500
H643        H  0.81593912  0.29764712  0.55419804     0.11500
H644        H  0.93991299  0.35669410  0.58945170     0.11500
C645        C  0.83309358  0.27141202  0.88780616    -0.14700
C646        C  0.86399304  0.27320631  0.85965104     0.07500
C647        C  0.90259311  0.30404070  0.86818410    -0.14700
C648        C  0.90995372  0.33311313  0.90319072    -0.14700
C649        C  0.87892129  0.33162294  0.93082072     0.07500
C650        C  0.84049437  0.30012554  0.92317891    -0.14700
H651        H  0.80307905  0.24790494  0.88228633     0.11500
H652        H  0.92700639  0.30626436  0.84691729     0.11500
H653        H  0.93988668  0.35688063  0.90832912     0.11500
H654        H  0.81586160  0.29802284  0.94379727     0.11500
Fe655      Fe  0.79286904  0.68276702  0.74924579     1.65800
Fe656      Fe  0.81666578  0.60984150  0.74946177     1.73200
Fe657      Fe  0.88972148  0.70674281  0.74938130     1.54400
O658        O  0.88393958  0.74018712  0.69485575    -0.83000
O659        O  0.85604972  0.61574571  0.80375594    -0.81300
O660        O  0.82084450  0.72386457  0.69415257    -0.85500
O661        O  0.82090487  0.72432439  0.80373090    -0.80400
O662        O  0.90311165  0.67876488  0.69475825    -0.82100
O663        O  0.77543938  0.59658897  0.80449241    -0.84900
C664        C  0.85574007  0.74400839  0.82025730     0.95900
C665        C  0.85579080  0.74375199  0.67788669     1.03300
O666        O  0.83308496  0.66644495  0.74935684    -1.13900
O667        O  0.77517956  0.59631643  0.69487977    -0.76300
O668        O  0.75927540  0.64329523  0.69510711    -0.79800
O669        O  0.88384154  0.74014148  0.80375995    -0.80500
C670        C  0.75542573  0.61138937  0.67848811     0.94800
O671        O  0.75955968  0.64362523  0.80395451    -0.78400
O672        O  0.85591020  0.61580764  0.69477931    -0.83600
C673        C  0.88784792  0.64391178  0.82060056     0.97400
C674        C  0.88791980  0.64395362  0.67819365     1.03300
O675        O  0.90294857  0.67878932  0.80421244    -0.79300
C676        C  0.75577231  0.61179498  0.82085031     1.01600
C677        C  0.86195158  0.88702188  0.02949870     0.78900
N678        N  0.85696500  0.85806637  0.99796805    -0.79400
C679        C  0.88600001  0.86312304  0.96641432     0.81300
N680        N  0.92081116  0.89764691  0.96700887    -0.79400
C681        C  0.92604683  0.92711177  0.99801212     0.81400
N682        N  0.89648276  0.92177707  0.02896184    -0.81100
C683        C  0.53535597  0.50028445  0.99978619     0.01800
C684        C  0.53533742  0.53600506  0.00001040    -0.14300
C685        C  0.49971862  0.53625312  0.99943589    -0.00700
C686        C  0.96396701  0.00044751  0.99863858    -0.12900
C687        C  0.96366801  0.96457454  0.99841434     0.01800
C688        C  0.99944315  0.96465154  0.99899961    -0.12300
H689        H  0.56303237  0.56358992  0.00052242     0.07400
H690        H  0.93637844  0.00049262  0.99823154     0.04900
H691        H  0.99933967  0.93700237  0.99883659     0.04800
C692        C  0.97586820  0.61381145  0.96804953     0.78900
N693        N  0.50001268  0.64285942  0.99939219    -0.79400
C694        C  0.52405975  0.63788760  0.03079852     0.81300
N695        N  0.52423877  0.60337387  0.03025923    -0.79400
C696        C  0.49982942  0.57380741  0.99947093     0.81400
N697        N  0.97550846  0.57904078  0.96866883    -0.81100
C698        C  0.61274105  0.97620049  0.03160744     0.78900
N699        N  0.57804643  0.97608176  0.03117387    -0.79400
C700        C  0.57282287  0.50020815  0.99993883     0.81300
N701        N  0.60228397  0.52417786  0.96862647    -0.78400
C702        C  0.63670477  0.52379678  0.96797004     0.81400
N703        N  0.64165399  0.49992735  0.99971546    -0.81100
Fe704      Fe  0.68337847  0.79360621  0.24925979     1.65800
Fe705      Fe  0.61005203  0.81684892  0.24947095     1.73200
Fe706      Fe  0.70673881  0.89027039  0.24935513     1.54400
O707        O  0.73978748  0.88466584  0.30456039    -0.83000
O708        O  0.61571314  0.85655339  0.19570338    -0.81300
O709        O  0.72532023  0.82217333  0.30310763    -0.85500
O710        O  0.72390194  0.82138560  0.19363500    -0.80400
O711        O  0.67816914  0.90350094  0.30361369    -0.82100
O712        O  0.59717453  0.77622799  0.19406162    -0.84900
C713        C  0.74399457  0.85641022  0.17782018     0.95900
C714        C  0.74425933  0.85678340  0.32046272     1.03300
O715        O  0.66673161  0.83358371  0.24937822    -1.13900
O716        O  0.59684770  0.77507998  0.30358650    -0.76300
O717        O  0.64484937  0.76057892  0.30462984    -0.79800
O718        O  0.74074150  0.88456624  0.19542877    -0.80500
C719        C  0.61254523  0.75614074  0.32077332     0.94800
O720        O  0.64356987  0.75951056  0.19562811    -0.78400
O721        O  0.61556195  0.85542389  0.30459860    -0.83600
C722        C  0.64383404  0.88814443  0.17822090     0.97400
C723        C  0.64341657  0.88770734  0.32076399     1.03300
O724        O  0.67891461  0.90314303  0.19386172    -0.79300
C725        C  0.61206814  0.75615970  0.17821730     1.01600
C726        C  0.88603147  0.86288308  0.53147611     0.78900
N727        N  0.85711509  0.85784577  0.49981649    -0.79400
C728        C  0.86219105  0.88689543  0.46831330     0.81300
N729        N  0.89667846  0.92170542  0.46897061    -0.79400
C730        C  0.92612212  0.92697063  0.50000621     0.81400
N731        N  0.92078527  0.89743763  0.53097731    -0.81100
C732        C  0.96377839  0.96437960  0.49977275     0.01800
C733        C  0.96420680  0.50030479  0.49976785    -0.14300
C734        C  0.50003509  0.53603160  0.49957374    -0.00700
C735        C  0.53560091  0.53566260  0.49935171    -0.12900
C736        C  0.53548609  0.49986992  0.49935564     0.01800
C737        C  0.99948832  0.96431921  0.49954049    -0.12300
H738        H  0.93667015  0.00045687  0.49994949     0.07400
H739        H  0.56334288  0.56320475  0.49927226     0.04900
H740        H  0.99926174  0.93660834  0.49958896     0.04800
C741        C  0.97655819  0.61375435  0.53149814     0.78900
N742        N  0.97613620  0.57894903  0.53085746    -0.79400
C743        C  0.50026734  0.57363037  0.49971744     0.81300
N744        N  0.52452500  0.60311911  0.46863128    -0.79400
C745        C  0.52438059  0.63764444  0.46814388     0.81400
N746        N  0.50053635  0.64271426  0.49985331    -0.81100
C747        C  0.61253220  0.97496593  0.46870894     0.78900
N748        N  0.64149450  0.49888209  0.50031230    -0.79400
C749        C  0.63667207  0.52314201  0.53152558     0.81300
N750        N  0.60237074  0.52375318  0.53055927    -0.79400
C751        C  0.57286273  0.49958445  0.49955198     0.81400
N752        N  0.57794320  0.97505013  0.46891133    -0.81100
C753        C  0.57955154  0.66877555  0.40650969    -0.14700
C754        C  0.54861794  0.66903271  0.43229855     0.07500
C755        C  0.54011198  0.69915129  0.42258724    -0.14700
C756        C  0.56129537  0.72773385  0.38695001    -0.14700
C757        C  0.59181254  0.72717762  0.36056782     0.07500
C758        C  0.60114406  0.69775381  0.37122562    -0.14700
H759        H  0.58692156  0.64606956  0.41336744     0.11500
H760        H  0.51642382  0.70019675  0.44173361     0.11500
H761        H  0.55353243  0.75012654  0.37979216     0.11500
H762        H  0.62448015  0.69652658  0.35141718     0.11500
C763        C  0.59626445  0.89988356  0.36970906    -0.14700
C764        C  0.63496580  0.90815281  0.36066140     0.07500
C765        C  0.66575581  0.93714325  0.38899810    -0.14700
C766        C  0.65817336  0.95792690  0.42496817    -0.14700
C767        C  0.61967355  0.95063494  0.43299718     0.07500
C768        C  0.58872198  0.92110838  0.40528915    -0.14700
H769        H  0.57192065  0.87772017  0.34837089     0.11500
H770        H  0.69583096  0.94397383  0.38315472     0.11500
H771        H  0.68274650  0.98043800  0.44564286     0.11500
H772        H  0.55873363  0.91465417  0.41073345     0.11500
C773        C  0.80202871  0.90371906  0.37198129    -0.14700
C774        C  0.77317324  0.86490350  0.36024985     0.07500
C775        C  0.77305889  0.83368195  0.38568764    -0.14700
C776        C  0.80144801  0.84101449  0.42148453    -0.14700
C777        C  0.83095767  0.87973135  0.43231545     0.07500
C778        C  0.83082500  0.91105025  0.40742049    -0.14700
H779        H  0.80292091  0.92840970  0.35296530     0.11500
H780        H  0.75114883  0.80345864  0.37769382     0.11500
H781        H  0.80075788  0.81618993  0.43987149     0.11500
H782        H  0.85306470  0.94119966  0.41515338     0.11500
C783        C  0.58918679  0.92313452  0.09624716    -0.14700
C784        C  0.61991828  0.95193909  0.06740322     0.07500
C785        C  0.65822639  0.95830050  0.07395920    -0.14700
C786        C  0.66584109  0.93717536  0.10938807    -0.14700
C787        C  0.63527493  0.90882390  0.13874155     0.07500
C788        C  0.59675196  0.90160149  0.13133390    -0.14700
H789        H  0.55935210  0.91742511  0.09201272     0.11500
H790        H  0.68264089  0.98023307  0.05239009     0.11500
H791        H  0.69577342  0.94323941  0.11400670     0.11500
H792        H  0.57259276  0.88000731  0.15355264     0.11500
C793        C  0.57860961  0.66839700  0.09317449    -0.14700
C794        C  0.54840877  0.66931080  0.06649759     0.07500
C795        C  0.54060195  0.70001380  0.07539176    -0.14700
C796        C  0.56166912  0.72847082  0.11112442    -0.14700
C797        C  0.59138832  0.72721447  0.13844552     0.07500
C798        C  0.60006466  0.69721750  0.12858692    -0.14700
H799        H  0.58546159  0.64524891  0.08699483     0.11500
H800        H  0.51751844  0.70161969  0.05555023     0.11500
H801        H  0.55442336  0.75131292  0.11762065     0.11500
H802        H  0.62279148  0.69544300  0.14908202     0.11500
C803        C  0.79981699  0.84124805  0.07431628    -0.14700
C804        C  0.83058882  0.87982033  0.06542288     0.07500
C805        C  0.83166793  0.91091009  0.09234545    -0.14700
C806        C  0.80293151  0.90346595  0.12798637    -0.14700
C807        C  0.77285241  0.86473838  0.13783017     0.07500
C808        C  0.77143288  0.83377692  0.11028136    -0.14700
H809        H  0.79810025  0.81658293  0.05428722     0.11500
H810        H  0.85488221  0.94095834  0.08617837     0.11500
H811        H  0.80483317  0.92794968  0.14866122     0.11500
H812        H  0.74851906  0.80364373  0.11677254     0.11500
C813        C  0.72845915  0.56225155  0.88912429    -0.14700
C814        C  0.72660985  0.59106208  0.86047430     0.07500
C815        C  0.69570005  0.59871084  0.86868461    -0.14700
C816        C  0.66662015  0.57718752  0.90389049    -0.14700
C817        C  0.66817608  0.54795783  0.93205930     0.07500
C818        C  0.69972555  0.54112033  0.92469922    -0.14700
H819        H  0.75202331  0.55584159  0.88384172     0.11500
H820        H  0.69341892  0.62065511  0.84701030     0.11500
H821        H  0.64280105  0.58326262  0.90877004     0.11500
H822        H  0.70187320  0.51882346  0.94573311     0.11500
C823        C  0.69590513  0.59879751  0.62976066    -0.14700
C824        C  0.72623817  0.59048488  0.63902200     0.07500
C825        C  0.72763007  0.56099000  0.61136542    -0.14700
C826        C  0.69905764  0.53987897  0.57574450    -0.14700
C827        C  0.66808684  0.54739481  0.56733077     0.07500
C828        C  0.66696922  0.57729380  0.59448570    -0.14700
H829        H  0.69399422  0.62131018  0.65059001     0.11500
H830        H  0.75072353  0.55402612  0.61744326     0.11500
H831        H  0.70083813  0.51703722  0.55554227     0.11500
H832        H  0.64360775  0.58391280  0.58874630     0.11500
C833        C  0.93908078  0.66689934  0.88670112    -0.14700
C834        C  0.90862570  0.63575806  0.86034776     0.07500
C835        C  0.89926988  0.59698546  0.87115845    -0.14700
C836        C  0.92072630  0.58965480  0.90657505    -0.14700
C837        C  0.95160737  0.62091561  0.93231206     0.07500
C838        C  0.96014888  0.65955335  0.92245125    -0.14700
H839        H  0.94689481  0.69707539  0.87944009     0.11500
H840        H  0.87596862  0.57234967  0.85143629     0.11500
H841        H  0.91331003  0.55955824  0.91354207     0.11500
H842        H  0.98380176  0.68434417  0.94153640     0.11500
C843        C  0.89954820  0.59704166  0.62798791    -0.14700
C844        C  0.90892010  0.63582457  0.63866581     0.07500
C845        C  0.93970731  0.66697723  0.61257692    -0.14700
C846        C  0.96101383  0.65960777  0.57713414    -0.14700
C847        C  0.95236120  0.62093481  0.56731671     0.07500
C848        C  0.92123957  0.58968735  0.59289374    -0.14700
H849        H  0.87603074  0.57240486  0.64756456     0.11500
H850        H  0.94757961  0.69716740  0.61979654     0.11500
H851        H  0.98487632  0.68439009  0.55818499     0.11500
H852        H  0.91375170  0.55957357  0.58596229     0.11500
C853        C  0.90266512  0.80377931  0.62967333    -0.14700
C854        C  0.86408634  0.77287663  0.63829069     0.07500
C855        C  0.83319493  0.77102928  0.61014854    -0.14700
C856        C  0.84056756  0.79977130  0.57476349    -0.14700
C857        C  0.87895977  0.83133776  0.56706121     0.07500
C858        C  0.90999611  0.83287145  0.59464218    -0.14700
H859        H  0.92707622  0.80605577  0.65091058     0.11500
H860        H  0.80318929  0.74748509  0.61573697     0.11500
H861        H  0.81593946  0.79764676  0.55419809     0.11500
H862        H  0.93991348  0.85669448  0.58945123     0.11500
C863        C  0.83309350  0.77141188  0.88780614    -0.14700
C864        C  0.86399296  0.77320635  0.85965096     0.07500
C865        C  0.90259317  0.80404090  0.86818402    -0.14700
C866        C  0.90995389  0.83311335  0.90319058    -0.14700
C867        C  0.87892151  0.83162297  0.93082066     0.07500
C868        C  0.84049438  0.80012544  0.92317890    -0.14700
H869        H  0.80307859  0.74790458  0.88228615     0.11500
H870        H  0.92700617  0.80626442  0.84691707     0.11500
H871        H  0.93988728  0.85688098  0.90832928     0.11500
H872        H  0.81586213  0.79802259  0.94379800     0.11500
loop_ 
_geom_bond_atom_site_label_1 
_geom_bond_atom_site_label_2 
_geom_bond_distance 
_geom_bond_site_symmetry_2 
_ccdc_geom_bond_type 
Fe1          O17   2.061       .  S
Fe1           O7   2.063       .  S
Fe1          O14   2.061       .  S
Fe1           O6   2.063       .  S
Fe1          O12   1.980       .  S
Fe2           O5   2.062       .  S
Fe2           O9   2.064       .  S
Fe2          O13   2.064       .  S
Fe2          O18   2.062       .  S
Fe2          O12   1.981       .  S
Fe3          O21   2.062       .  S
Fe3           O8   2.062       .  S
Fe3          O15   2.061       .  S
Fe3           O4   2.063       .  S
Fe3          O12   1.980       .  S
O4           C11   1.268       .  A
O5           C19   1.268       .  A
O6           C11   1.269       .  A
O7           C10   1.269       .  A
O8           C20   1.269       .  A
O9           C22   1.269       .  A
C10          O15   1.268       .  A
C10         C210   1.479       .  S
C11         C200   1.480       .  S
O13          C16   1.269       .  A
O14          C16   1.268       .  A
C16         C170   1.480       .  S
O17          C22   1.268       .  A
O18          C20   1.268       .  A
C19          O21   1.269       .  A
C19         C180   1.480       .  S
C20         C190   1.480       .  S
C22         C160   1.479       .  S
C23         C150   1.480       .  S
C23          N24   1.356   1_554  A
C23          N28   1.359       .  A
N24          C25   1.356       .  A
C25         C213   1.481       .  S
C25          N26   1.360       .  A
N26          C27   1.360       .  A
C27          C33   1.473       .  S
C27          N28   1.359   1_556  A
C29          C46   1.473       .  S
C29          C30   1.404   1_556  A
C29         C688   1.403   1_445  A
C30          C31   1.404   1_454  A
C30          H35   1.084       .  S
C31          C42   1.473       .  S
C31         C686   1.404       .  A
C32          C33   1.404       .  A
C32         C685   1.404       .  A
C32          H36   1.084       .  S
C33          C34   1.403       .  A
C34         C683   1.403       .  A
C34          H37   1.084       .  S
C38         C183   1.480       .  S
C38          N43   1.359       .  A
C38         N475   1.356       .  A
N39          C40   1.356   1_556  A
N39         C474   1.356   1_455  A
C40         C140   1.481       .  S
C40          N41   1.360       .  A
N41          C42   1.360   1_454  A
C42         N479   1.360       .  A
N43         C478   1.360       .  A
C44         C130   1.482       .  S
C44          N45   1.360       .  A
C44         N267   1.356   1_554  A
N45         C264   1.360   1_554  A
C46          N47   1.360       .  A
C46         N263   1.360   1_546  A
N47          C48   1.359       .  A
C48         C163   1.481       .  S
C48          N49   1.356   1_545  A
N49         C262   1.356   1_556  A
Fe50         O66   2.063       .  S
Fe50         O56   2.060       .  S
Fe50         O63   2.060       .  S
Fe50         O55   2.062       .  S
Fe50         O61   1.981       .  S
Fe51         O54   2.062       .  S
Fe51         O58   2.061       .  S
Fe51         O62   2.062       .  S
Fe51         O67   2.060       .  S
Fe51         O61   1.979       .  S
Fe52         O70   2.065       .  S
Fe52         O57   2.066       .  S
Fe52         O64   2.064       .  S
Fe52         O53   2.063       .  S
Fe52         O61   1.980       .  S
O53          C60   1.268       .  A
O54          C68   1.268       .  A
O55          C60   1.269       .  A
O56          C59   1.269       .  A
O57          C69   1.270       .  A
O58          C71   1.269       .  A
C59          O64   1.269       .  A
C59         C153   1.479       .  S
C60         C120   1.480       .  S
O62          C65   1.269       .  A
O63          C65   1.268       .  A
C65         C103   1.479       .  S
O66          C71   1.268       .  A
O67          C69   1.268       .  A
C68          O70   1.270       .  A
C68         C133   1.480       .  S
C69         C110   1.480       .  S
C71         C143   1.480       .  S
C72         C203   1.481       .  S
C72          N73   1.357       .  A
C72          N77   1.359       .  A
N73          C74   1.357       .  A
C74         C123   1.480       .  S
C74          N75   1.359       .  A
N75          C76   1.360       .  A
C76          C78   1.472       .  S
C76          N77   1.360       .  A
C78          C83   1.403       .  A
C78         C297   1.403       .  A
C79         C296   1.403   1_545  A
C79         C516   1.403       .  A
C79         H302   1.084       .  S
C80          C89   1.473       .  S
C80          C81   1.404       .  A
C80         C515   1.403   1_455  A
C81          C82   1.404   1_545  A
C81          H85   1.084       .  S
C82          C97   1.473       .  S
C82         C737   1.403   1_455  A
C83         C736   1.403       .  A
C83          H86   1.084       .  S
H84         C297   1.084       .  S
C87         C193   1.480       .  S
C87          N88   1.359       .  A
C87         N528   1.356       .  A
N88         C525   1.360       .  A
C89          N90   1.360       .  A
C89         N524   1.360   1_455  A
N90          C91   1.359       .  A
C91         C100   1.479       .  S
C91          N92   1.356       .  A
N92         C523   1.356   1_455  A
C93         C113   1.482       .  S
C93          N98   1.360       .  A
C93         N312   1.356       .  A
N94          C95   1.356   1_565  A
N94         C311   1.356       .  A
C95         C173   1.481       .  S
C95          N96   1.359       .  A
N96          C97   1.360   1_545  A
C97         N316   1.360       .  A
N98         C315   1.360       .  A
C99         C100   1.405       .  A
C99         C104   1.399       .  A
C99         H105   1.083       .  S
C100        C101   1.406       .  A
C101        C102   1.394       .  A
C101        H106   1.083       .  S
C102        C103   1.404       .  A
C102        H107   1.083       .  S
C103        C104   1.407       .  A
C104        H108   1.083       .  S
C109        C110   1.407       .  A
C109        C114   1.400       .  A
C109        H115   1.083       .  S
C110        C111   1.403       .  A
C111        C112   1.396       .  A
C111        H116   1.083       .  S
C112        C113   1.407       .  A
C112        H117   1.083       .  S
C113        C114   1.405       .  A
C114        H118   1.083       .  S
C119        C120   1.407       .  A
C119        C124   1.399       .  A
C119        H125   1.083       .  S
C120        C121   1.405       .  A
C121        C122   1.395       .  A
C121        H126   1.083       .  S
C122        C123   1.406       .  A
C122        H127   1.083       .  S
C123        C124   1.405       .  A
C124        H128   1.083       .  S
C129        C130   1.405       .  A
C129        C134   1.399       .  A
C129        H135   1.083       .  S
C130        C131   1.407       .  A
C131        C132   1.395       .  A
C131        H136   1.083       .  S
C132        C133   1.403       .  A
C132        H137   1.083       .  S
C133        C134   1.407       .  A
C134        H138   1.083       .  S
C139        C140   1.405       .  A
C139        C144   1.399       .  A
C139        H145   1.083       .  S
C140        C141   1.406       .  A
C141        C142   1.395       .  A
C141        H146   1.083       .  S
C142        C143   1.404       .  A
C142        H147   1.083       .  S
C143        C144   1.407       .  A
C144        H148   1.083       .  S
C149        C150   1.406       .  A
C149        C154   1.395       .  A
C149        H155   1.083       .  S
C150        C151   1.405       .  A
C151        C152   1.399       .  A
C151        H156   1.083       .  S
C152        C153   1.406       .  A
C152        H157   1.083       .  S
C153        C154   1.404       .  A
C154        H158   1.083       .  S
C159        C160   1.404       .  A
C159        C164   1.396       .  A
C159        H165   1.083       .  S
C160        C161   1.406       .  A
C161        C162   1.399       .  A
C161        H166   1.083       .  S
C162        C163   1.405       .  A
C162        H167   1.083       .  S
C163        C164   1.407       .  A
C164        H168   1.083       .  S
C169        C170   1.407       .  A
C169        C174   1.399       .  A
C169        H175   1.083       .  S
C170        C171   1.404       .  A
C171        C172   1.395       .  A
C171        H176   1.083       .  S
C172        C173   1.407       .  A
C172        H177   1.083       .  S
C173        C174   1.405       .  A
C174        H178   1.083       .  S
C179        C180   1.404       .  A
C179        C184   1.395       .  A
C179        H185   1.083       .  S
C180        C181   1.407       .  A
C181        C182   1.399       .  A
C181        H186   1.083       .  S
C182        C183   1.405       .  A
C182        H187   1.083       .  S
C183        C184   1.406       .  A
C184        H188   1.083       .  S
C189        C190   1.407       .  A
C189        C194   1.399       .  A
C189        H195   1.083       .  S
C190        C191   1.404       .  A
C191        C192   1.395       .  A
C191        H196   1.083       .  S
C192        C193   1.406       .  A
C192        H197   1.083       .  S
C193        C194   1.405       .  A
C194        H198   1.083       .  S
C199        C200   1.406       .  A
C199        C204   1.399       .  A
C199        H205   1.083       .  S
C200        C201   1.404       .  A
C201        C202   1.396       .  A
C201        H206   1.083       .  S
C202        C203   1.407       .  A
C202        H207   1.083       .  S
C203        C204   1.405       .  A
C204        H208   1.083       .  S
C209        C210   1.404       .  A
C209        C214   1.395       .  A
C209        H215   1.083       .  S
C210        C211   1.406       .  A
C211        C212   1.399       .  A
C211        H216   1.083       .  S
C212        C213   1.405       .  A
C212        H217   1.083       .  S
C213        C214   1.407       .  A
C214        H218   1.083       .  S
Fe219       O235   2.061       .  S
Fe219       O225   2.063       .  S
Fe219       O232   2.061       .  S
Fe219       O224   2.063       .  S
Fe219       O230   1.980       .  S
Fe220       O223   2.062       .  S
Fe220       O227   2.064       .  S
Fe220       O231   2.064       .  S
Fe220       O236   2.062       .  S
Fe220       O230   1.981       .  S
Fe221       O239   2.062       .  S
Fe221       O226   2.062       .  S
Fe221       O233   2.061       .  S
Fe221       O222   2.063       .  S
Fe221       O230   1.980       .  S
O222        C229   1.268       .  A
O223        C237   1.268       .  A
O224        C229   1.269       .  A
O225        C228   1.269       .  A
O226        C238   1.269       .  A
O227        C240   1.269       .  A
C228        O233   1.268       .  A
C228        C428   1.479       .  S
C229        C418   1.480       .  S
O231        C234   1.269       .  A
O232        C234   1.268       .  A
C234        C388   1.480       .  S
O235        C240   1.268       .  A
O236        C238   1.268       .  A
C237        O239   1.269       .  A
C237        C398   1.480       .  S
C238        C408   1.480       .  S
C240        C378   1.479       .  S
C241        C368   1.480       .  S
C241        N242   1.356   1_554  A
C241        N246   1.359       .  A
N242        C243   1.356       .  A
C243        C431   1.481       .  S
C243        N244   1.360       .  A
N244        C245   1.360       .  A
C245        C251   1.473       .  S
C245        N246   1.359   1_556  A
C247        C264   1.473       .  S
C247        C248   1.404   1_556  A
C247        C470   1.403   1_455  A
C248        C249   1.404   1_454  A
C248        H253   1.084       .  S
C249        C260   1.473       .  S
C249        C468   1.404       .  A
C250        C467   1.404       .  A
C250        C251   1.404   1_545  A
C250        H254   1.084       .  S
C251        C252   1.403       .  A
C252        C465   1.403   1_565  A
C252        H255   1.084       .  S
C256        C401   1.480       .  S
C256        N693   1.356       .  A
C256        N261   1.359       .  A
N257        C692   1.356   1_455  A
N257        C258   1.356   1_556  A
C258        C358   1.481       .  S
C258        N259   1.360       .  A
N259        C260   1.360   1_454  A
C260        N697   1.360       .  A
N261        C696   1.360       .  A
C262        C348   1.482       .  S
C262        N263   1.360       .  A
C264        N265   1.360       .  A
N265        C266   1.359       .  A
C266        C381   1.481       .  S
C266        N267   1.356       .  A
Fe268       O284   2.063       .  S
Fe268       O274   2.060       .  S
Fe268       O281   2.060       .  S
Fe268       O273   2.062       .  S
Fe268       O279   1.981       .  S
Fe269       O272   2.062       .  S
Fe269       O276   2.061       .  S
Fe269       O280   2.062       .  S
Fe269       O285   2.060       .  S
Fe269       O279   1.979       .  S
Fe270       O288   2.065       .  S
Fe270       O275   2.066       .  S
Fe270       O282   2.064       .  S
Fe270       O271   2.063       .  S
Fe270       O279   1.980       .  S
O271        C278   1.268       .  A
O272        C286   1.268       .  A
O273        C278   1.269       .  A
O274        C277   1.269       .  A
O275        C287   1.270       .  A
O276        C289   1.269       .  A
C277        O282   1.269       .  A
C277        C371   1.479       .  S
C278        C338   1.480       .  S
O280        C283   1.269       .  A
O281        C283   1.268       .  A
C283        C321   1.479       .  S
O284        C289   1.268       .  A
O285        C287   1.268       .  A
C286        O288   1.270       .  A
C286        C351   1.480       .  S
C287        C328   1.480       .  S
C289        C361   1.480       .  S
C290        C421   1.481       .  S
C290        N291   1.357       .  A
C290        N295   1.359       .  A
N291        C292   1.357       .  A
C292        C341   1.480       .  S
C292        N293   1.359       .  A
N293        C294   1.360       .  A
C294        C296   1.472       .  S
C294        N295   1.360       .  A
C296        C301   1.403       .  A
C297        C734   1.403       .  A
C298        C307   1.473       .  S
C298        C733   1.403   1_455  A
C298        C299   1.404       .  A
C299        C300   1.404       .  A
C299        H303   1.084       .  S
C300        C315   1.473       .  S
C300        C519   1.403   1_455  A
C301        C518   1.403       .  A
C301        H304   1.084       .  S
C305        C411   1.480       .  S
C305        N306   1.359       .  A
C305        N746   1.356       .  A
N306        C743   1.360       .  A
C307        N742   1.360   1_455  A
C307        N308   1.360       .  A
N308        C309   1.359       .  A
C309        C318   1.479       .  S
C309        N310   1.356       .  A
N310        C741   1.356   1_455  A
C311        C331   1.482       .  S
C311        N316   1.360       .  A
N312        C313   1.356       .  A
C313        C391   1.481       .  S
C313        N314   1.359       .  A
N314        C315   1.360       .  A
C317        C318   1.405       .  A
C317        C322   1.399       .  A
C317        H323   1.083       .  S
C318        C319   1.406       .  A
C319        C320   1.394       .  A
C319        H324   1.083       .  S
C320        C321   1.404       .  A
C320        H325   1.083       .  S
C321        C322   1.407       .  A
C322        H326   1.083       .  S
C327        C328   1.407       .  A
C327        C332   1.400       .  A
C327        H333   1.083       .  S
C328        C329   1.403       .  A
C329        C330   1.396       .  A
C329        H334   1.083       .  S
C330        C331   1.407       .  A
C330        H335   1.083       .  S
C331        C332   1.405       .  A
C332        H336   1.083       .  S
C337        C338   1.407       .  A
C337        C342   1.399       .  A
C337        H343   1.083       .  S
C338        C339   1.405       .  A
C339        C340   1.395       .  A
C339        H344   1.083       .  S
C340        C341   1.406       .  A
C340        H345   1.083       .  S
C341        C342   1.405       .  A
C342        H346   1.083       .  S
C347        C348   1.405       .  A
C347        C352   1.399       .  A
C347        H353   1.083       .  S
C348        C349   1.407       .  A
C349        C350   1.395       .  A
C349        H354   1.083       .  S
C350        C351   1.403       .  A
C350        H355   1.083       .  S
C351        C352   1.407       .  A
C352        H356   1.083       .  S
C357        C358   1.405       .  A
C357        C362   1.399       .  A
C357        H363   1.083       .  S
C358        C359   1.406       .  A
C359        C360   1.395       .  A
C359        H364   1.083       .  S
C360        C361   1.404       .  A
C360        H365   1.083       .  S
C361        C362   1.407       .  A
C362        H366   1.083       .  S
C367        C368   1.406       .  A
C367        C372   1.395       .  A
C367        H373   1.083       .  S
C368        C369   1.405       .  A
C369        C370   1.399       .  A
C369        H374   1.083       .  S
C370        C371   1.406       .  A
C370        H375   1.083       .  S
C371        C372   1.404       .  A
C372        H376   1.083       .  S
C377        C378   1.404       .  A
C377        C382   1.396       .  A
C377        H383   1.083       .  S
C378        C379   1.406       .  A
C379        C380   1.399       .  A
C379        H384   1.083       .  S
C380        C381   1.405       .  A
C380        H385   1.083       .  S
C381        C382   1.407       .  A
C382        H386   1.083       .  S
C387        C388   1.407       .  A
C387        C392   1.399       .  A
C387        H393   1.083       .  S
C388        C389   1.404       .  A
C389        C390   1.395       .  A
C389        H394   1.083       .  S
C390        C391   1.407       .  A
C390        H395   1.083       .  S
C391        C392   1.405       .  A
C392        H396   1.083       .  S
C397        C398   1.404       .  A
C397        C402   1.395       .  A
C397        H403   1.083       .  S
C398        C399   1.407       .  A
C399        C400   1.399       .  A
C399        H404   1.083       .  S
C400        C401   1.405       .  A
C400        H405   1.083       .  S
C401        C402   1.406       .  A
C402        H406   1.083       .  S
C407        C408   1.407       .  A
C407        C412   1.399       .  A
C407        H413   1.083       .  S
C408        C409   1.404       .  A
C409        C410   1.395       .  A
C409        H414   1.083       .  S
C410        C411   1.406       .  A
C410        H415   1.083       .  S
C411        C412   1.405       .  A
C412        H416   1.083       .  S
C417        C418   1.406       .  A
C417        C422   1.399       .  A
C417        H423   1.083       .  S
C418        C419   1.404       .  A
C419        C420   1.396       .  A
C419        H424   1.083       .  S
C420        C421   1.407       .  A
C420        H425   1.083       .  S
C421        C422   1.405       .  A
C422        H426   1.083       .  S
C427        C428   1.404       .  A
C427        C432   1.395       .  A
C427        H433   1.083       .  S
C428        C429   1.406       .  A
C429        C430   1.399       .  A
C429        H434   1.083       .  S
C430        C431   1.405       .  A
C430        H435   1.083       .  S
C431        C432   1.407       .  A
C432        H436   1.083       .  S
Fe437       O453   2.061       .  S
Fe437       O443   2.063       .  S
Fe437       O450   2.061       .  S
Fe437       O442   2.063       .  S
Fe437       O448   1.980       .  S
Fe438       O441   2.062       .  S
Fe438       O445   2.064       .  S
Fe438       O449   2.064       .  S
Fe438       O454   2.062       .  S
Fe438       O448   1.981       .  S
Fe439       O457   2.062       .  S
Fe439       O444   2.062       .  S
Fe439       O451   2.061       .  S
Fe439       O440   2.063       .  S
Fe439       O448   1.980       .  S
O440        C447   1.268       .  A
O441        C455   1.268       .  A
O442        C447   1.269       .  A
O443        C446   1.269       .  A
O444        C456   1.269       .  A
O445        C458   1.269       .  A
C446        O451   1.268       .  A
C446        C646   1.479       .  S
C447        C636   1.480       .  S
O449        C452   1.269       .  A
O450        C452   1.268       .  A
C452        C606   1.480       .  S
O453        C458   1.268       .  A
O454        C456   1.268       .  A
C455        O457   1.269       .  A
C455        C616   1.480       .  S
C456        C626   1.480       .  S
C458        C596   1.479       .  S
C459        C586   1.480       .  S
C459        N460   1.356   1_554  A
C459        N464   1.359       .  A
N460        C461   1.356       .  A
C461        C649   1.481       .  S
C461        N462   1.360       .  A
N462        C463   1.360       .  A
C463        C469   1.473       .  S
C463        N464   1.359   1_556  A
C465        C482   1.473       .  S
C465        C466   1.404   1_556  A
C466        C467   1.404   1_554  A
C466        H471   1.084       .  S
C467        C478   1.473       .  S
C468        C469   1.404       .  A
C468        H472   1.084       .  S
C469        C470   1.403       .  A
C470        H473   1.084       .  S
C474        C619   1.480       .  S
C474        N479   1.359       .  A
N475        C476   1.356   1_556  A
C476        C576   1.481       .  S
C476        N477   1.360       .  A
N477        C478   1.360   1_554  A
C480        C566   1.482       .  S
C480        N481   1.360       .  A
C480        N703   1.356   1_554  A
N481        C700   1.360   1_554  A
C482        N699   1.360   1_546  A
C482        N483   1.360       .  A
N483        C484   1.359       .  A
C484        C599   1.481       .  S
C484        N485   1.356   1_545  A
N485        C698   1.356   1_556  A
Fe486       O502   2.063       .  S
Fe486       O492   2.060       .  S
Fe486       O499   2.060       .  S
Fe486       O491   2.062       .  S
Fe486       O497   1.981       .  S
Fe487       O490   2.062       .  S
Fe487       O494   2.061       .  S
Fe487       O498   2.062       .  S
Fe487       O503   2.060       .  S
Fe487       O497   1.979       .  S
Fe488       O506   2.065       .  S
Fe488       O493   2.066       .  S
Fe488       O500   2.064       .  S
Fe488       O489   2.063       .  S
Fe488       O497   1.980       .  S
O489        C496   1.268       .  A
O490        C504   1.268       .  A
O491        C496   1.269       .  A
O492        C495   1.269       .  A
O493        C505   1.270       .  A
O494        C507   1.269       .  A
C495        O500   1.269       .  A
C495        C589   1.479       .  S
C496        C556   1.480       .  S
O498        C501   1.269       .  A
O499        C501   1.268       .  A
C501        C539   1.479       .  S
O502        C507   1.268       .  A
O503        C505   1.268       .  A
C504        O506   1.270       .  A
C504        C569   1.480       .  S
C505        C546   1.480       .  S
C507        C579   1.480       .  S
C508        C639   1.481       .  S
C508        N509   1.357       .  A
C508        N513   1.359       .  A
N509        C510   1.357       .  A
C510        C559   1.480       .  S
C510        N511   1.359       .  A
N511        C512   1.360       .  A
C512        C514   1.472       .  S
C512        N513   1.360       .  A
C514        C733   1.403       .  A
C514        C519   1.403       .  A
C515        C732   1.403   1_545  A
C515        H738   1.084       .  S
C516        C525   1.473       .  S
C516        C517   1.404       .  A
C517        C518   1.404   1_545  A
C517        H521   1.084       .  S
C518        C533   1.473       .  S
C519        H522   1.084       .  S
H520        C733   1.084       .  S
C523        C629   1.480       .  S
C523        N524   1.359       .  A
C525        N526   1.360       .  A
N526        C527   1.359       .  A
C527        C536   1.479       .  S
C527        N528   1.356       .  A
C529        C549   1.482       .  S
C529        N748   1.356       .  A
C529        N534   1.360       .  A
N530        C747   1.356       .  A
N530        C531   1.356   1_565  A
C531        C609   1.481       .  S
C531        N532   1.359       .  A
N532        C533   1.360   1_545  A
C533        N752   1.360       .  A
N534        C751   1.360       .  A
C535        C536   1.405       .  A
C535        C540   1.399       .  A
C535        H541   1.083       .  S
C536        C537   1.406       .  A
C537        C538   1.394       .  A
C537        H542   1.083       .  S
C538        C539   1.404       .  A
C538        H543   1.083       .  S
C539        C540   1.407       .  A
C540        H544   1.083       .  S
C545        C546   1.407       .  A
C545        C550   1.400       .  A
C545        H551   1.083       .  S
C546        C547   1.403       .  A
C547        C548   1.396       .  A
C547        H552   1.083       .  S
C548        C549   1.407       .  A
C548        H553   1.083       .  S
C549        C550   1.405       .  A
C550        H554   1.083       .  S
C555        C556   1.407       .  A
C555        C560   1.399       .  A
C555        H561   1.083       .  S
C556        C557   1.405       .  A
C557        C558   1.395       .  A
C557        H562   1.083       .  S
C558        C559   1.406       .  A
C558        H563   1.083       .  S
C559        C560   1.405       .  A
C560        H564   1.083       .  S
C565        C566   1.405       .  A
C565        C570   1.399       .  A
C565        H571   1.083       .  S
C566        C567   1.407       .  A
C567        C568   1.395       .  A
C567        H572   1.083       .  S
C568        C569   1.403       .  A
C568        H573   1.083       .  S
C569        C570   1.407       .  A
C570        H574   1.083       .  S
C575        C576   1.405       .  A
C575        C580   1.399       .  A
C575        H581   1.083       .  S
C576        C577   1.406       .  A
C577        C578   1.395       .  A
C577        H582   1.083       .  S
C578        C579   1.404       .  A
C578        H583   1.083       .  S
C579        C580   1.407       .  A
C580        H584   1.083       .  S
C585        C586   1.406       .  A
C585        C590   1.395       .  A
C585        H591   1.083       .  S
C586        C587   1.405       .  A
C587        C588   1.399       .  A
C587        H592   1.083       .  S
C588        C589   1.406       .  A
C588        H593   1.083       .  S
C589        C590   1.404       .  A
C590        H594   1.083       .  S
C595        C596   1.404       .  A
C595        C600   1.396       .  A
C595        H601   1.083       .  S
C596        C597   1.406       .  A
C597        C598   1.399       .  A
C597        H602   1.083       .  S
C598        C599   1.405       .  A
C598        H603   1.083       .  S
C599        C600   1.407       .  A
C600        H604   1.083       .  S
C605        C606   1.407       .  A
C605        C610   1.399       .  A
C605        H611   1.083       .  S
C606        C607   1.404       .  A
C607        C608   1.395       .  A
C607        H612   1.083       .  S
C608        C609   1.407       .  A
C608        H613   1.083       .  S
C609        C610   1.405       .  A
C610        H614   1.083       .  S
C615        C616   1.404       .  A
C615        C620   1.395       .  A
C615        H621   1.083       .  S
C616        C617   1.407       .  A
C617        C618   1.399       .  A
C617        H622   1.083       .  S
C618        C619   1.405       .  A
C618        H623   1.083       .  S
C619        C620   1.406       .  A
C620        H624   1.083       .  S
C625        C626   1.407       .  A
C625        C630   1.399       .  A
C625        H631   1.083       .  S
C626        C627   1.404       .  A
C627        C628   1.395       .  A
C627        H632   1.083       .  S
C628        C629   1.406       .  A
C628        H633   1.083       .  S
C629        C630   1.405       .  A
C630        H634   1.083       .  S
C635        C636   1.406       .  A
C635        C640   1.399       .  A
C635        H641   1.083       .  S
C636        C637   1.404       .  A
C637        C638   1.396       .  A
C637        H642   1.083       .  S
C638        C639   1.407       .  A
C638        H643   1.083       .  S
C639        C640   1.405       .  A
C640        H644   1.083       .  S
C645        C646   1.404       .  A
C645        C650   1.395       .  A
C645        H651   1.083       .  S
C646        C647   1.406       .  A
C647        C648   1.399       .  A
C647        H652   1.083       .  S
C648        C649   1.405       .  A
C648        H653   1.083       .  S
C649        C650   1.407       .  A
C650        H654   1.083       .  S
Fe655       O671   2.061       .  S
Fe655       O661   2.063       .  S
Fe655       O668   2.061       .  S
Fe655       O660   2.063       .  S
Fe655       O666   1.980       .  S
Fe656       O659   2.062       .  S
Fe656       O663   2.064       .  S
Fe656       O667   2.064       .  S
Fe656       O672   2.062       .  S
Fe656       O666   1.981       .  S
Fe657       O675   2.062       .  S
Fe657       O662   2.062       .  S
Fe657       O669   2.061       .  S
Fe657       O658   2.063       .  S
Fe657       O666   1.980       .  S
O658        C665   1.268       .  A
O659        C673   1.268       .  A
O660        C665   1.269       .  A
O661        C664   1.269       .  A
O662        C674   1.269       .  A
O663        C676   1.269       .  A
C664        O669   1.268       .  A
C664        C864   1.479       .  S
C665        C854   1.480       .  S
O667        C670   1.269       .  A
O668        C670   1.268       .  A
C670        C824   1.480       .  S
O671        C676   1.268       .  A
O672        C674   1.268       .  A
C673        O675   1.269       .  A
C673        C834   1.480       .  S
C674        C844   1.480       .  S
C676        C814   1.479       .  S
C677        C804   1.480       .  S
C677        N678   1.356   1_554  A
C677        N682   1.359       .  A
N678        C679   1.356       .  A
C679        C867   1.481       .  S
C679        N680   1.360       .  A
N680        C681   1.360       .  A
C681        C687   1.473       .  S
C681        N682   1.359   1_556  A
C683        C700   1.473       .  S
C683        C684   1.404   1_556  A
C684        C685   1.404   1_554  A
C684        H689   1.084       .  S
C685        C696   1.473       .  S
C686        C687   1.404   1_545  A
C686        H690   1.084       .  S
C687        C688   1.403       .  A
C688        H691   1.084       .  S
C692        C837   1.480       .  S
C692        N697   1.359       .  A
N693        C694   1.356   1_556  A
C694        C794   1.481       .  S
C694        N695   1.360       .  A
N695        C696   1.360   1_554  A
C698        C784   1.482       .  S
C698        N699   1.360       .  A
C700        N701   1.360       .  A
N701        C702   1.359       .  A
C702        C817   1.481       .  S
C702        N703   1.356       .  A
Fe704       O720   2.063       .  S
Fe704       O710   2.060       .  S
Fe704       O717   2.060       .  S
Fe704       O709   2.062       .  S
Fe704       O715   1.981       .  S
Fe705       O708   2.062       .  S
Fe705       O712   2.061       .  S
Fe705       O716   2.062       .  S
Fe705       O721   2.060       .  S
Fe705       O715   1.979       .  S
Fe706       O724   2.065       .  S
Fe706       O711   2.066       .  S
Fe706       O718   2.064       .  S
Fe706       O707   2.063       .  S
Fe706       O715   1.980       .  S
O707        C714   1.268       .  A
O708        C722   1.268       .  A
O709        C714   1.269       .  A
O710        C713   1.269       .  A
O711        C723   1.270       .  A
O712        C725   1.269       .  A
C713        O718   1.269       .  A
C713        C807   1.479       .  S
C714        C774   1.480       .  S
O716        C719   1.269       .  A
O717        C719   1.268       .  A
C719        C757   1.479       .  S
O720        C725   1.268       .  A
O721        C723   1.268       .  A
C722        O724   1.270       .  A
C722        C787   1.480       .  S
C723        C764   1.480       .  S
C725        C797   1.480       .  S
C726        C857   1.481       .  S
C726        N727   1.357       .  A
C726        N731   1.359       .  A
N727        C728   1.357       .  A
C728        C777   1.480       .  S
C728        N729   1.359       .  A
N729        C730   1.360       .  A
C730        C732   1.472       .  S
C730        N731   1.360       .  A
C732        C737   1.403       .  A
C734        C743   1.473       .  S
C734        C735   1.404       .  A
C735        C736   1.404       .  A
C735        H739   1.084       .  S
C736        C751   1.473       .  S
C737        H740   1.084       .  S
C741        C847   1.480       .  S
C741        N742   1.359       .  A
C743        N744   1.360       .  A
N744        C745   1.359       .  A
C745        C754   1.479       .  S
C745        N746   1.356       .  A
C747        C767   1.482       .  S
C747        N752   1.360       .  A
N748        C749   1.356       .  A
C749        C827   1.481       .  S
C749        N750   1.359       .  A
N750        C751   1.360       .  A
C753        C754   1.405       .  A
C753        C758   1.399       .  A
C753        H759   1.083       .  S
C754        C755   1.406       .  A
C755        C756   1.394       .  A
C755        H760   1.083       .  S
C756        C757   1.404       .  A
C756        H761   1.083       .  S
C757        C758   1.407       .  A
C758        H762   1.083       .  S
C763        C764   1.407       .  A
C763        C768   1.400       .  A
C763        H769   1.083       .  S
C764        C765   1.403       .  A
C765        C766   1.396       .  A
C765        H770   1.083       .  S
C766        C767   1.407       .  A
C766        H771   1.083       .  S
C767        C768   1.405       .  A
C768        H772   1.083       .  S
C773        C774   1.407       .  A
C773        C778   1.399       .  A
C773        H779   1.083       .  S
C774        C775   1.405       .  A
C775        C776   1.395       .  A
C775        H780   1.083       .  S
C776        C777   1.406       .  A
C776        H781   1.083       .  S
C777        C778   1.405       .  A
C778        H782   1.083       .  S
C783        C784   1.405       .  A
C783        C788   1.399       .  A
C783        H789   1.083       .  S
C784        C785   1.407       .  A
C785        C786   1.395       .  A
C785        H790   1.083       .  S
C786        C787   1.403       .  A
C786        H791   1.083       .  S
C787        C788   1.407       .  A
C788        H792   1.083       .  S
C793        C794   1.405       .  A
C793        C798   1.399       .  A
C793        H799   1.083       .  S
C794        C795   1.406       .  A
C795        C796   1.395       .  A
C795        H800   1.083       .  S
C796        C797   1.404       .  A
C796        H801   1.083       .  S
C797        C798   1.407       .  A
C798        H802   1.083       .  S
C803        C804   1.406       .  A
C803        C808   1.395       .  A
C803        H809   1.083       .  S
C804        C805   1.405       .  A
C805        C806   1.399       .  A
C805        H810   1.083       .  S
C806        C807   1.406       .  A
C806        H811   1.083       .  S
C807        C808   1.404       .  A
C808        H812   1.083       .  S
C813        C814   1.404       .  A
C813        C818   1.396       .  A
C813        H819   1.083       .  S
C814        C815   1.406       .  A
C815        C816   1.399       .  A
C815        H820   1.083       .  S
C816        C817   1.405       .  A
C816        H821   1.083       .  S
C817        C818   1.407       .  A
C818        H822   1.083       .  S
C823        C824   1.407       .  A
C823        C828   1.399       .  A
C823        H829   1.083       .  S
C824        C825   1.404       .  A
C825        C826   1.395       .  A
C825        H830   1.083       .  S
C826        C827   1.407       .  A
C826        H831   1.083       .  S
C827        C828   1.405       .  A
C828        H832   1.083       .  S
C833        C834   1.404       .  A
C833        C838   1.395       .  A
C833        H839   1.083       .  S
C834        C835   1.407       .  A
C835        C836   1.399       .  A
C835        H840   1.083       .  S
C836        C837   1.405       .  A
C836        H841   1.083       .  S
C837        C838   1.406       .  A
C838        H842   1.083       .  S
C843        C844   1.407       .  A
C843        C848   1.399       .  A
C843        H849   1.083       .  S
C844        C845   1.404       .  A
C845        C846   1.395       .  A
C845        H850   1.083       .  S
C846        C847   1.406       .  A
C846        H851   1.083       .  S
C847        C848   1.405       .  A
C848        H852   1.083       .  S
C853        C854   1.406       .  A
C853        C858   1.399       .  A
C853        H859   1.083       .  S
C854        C855   1.404       .  A
C855        C856   1.396       .  A
C855        H860   1.083       .  S
C856        C857   1.407       .  A
C856        H861   1.083       .  S
C857        C858   1.405       .  A
C858        H862   1.083       .  S
C863        C864   1.404       .  A
C863        C868   1.395       .  A
C863        H869   1.083       .  S
C864        C865   1.406       .  A
C865        C866   1.399       .  A
C865        H870   1.083       .  S
C866        C867   1.405       .  A
C866        H871   1.083       .  S
C867        C868   1.407       .  A
C868        H872   1.083       .  S
