geometry optimzed in LAMMPS
_audit_creation_date              2020-11-30 
_audit_creation_method            'lammps2cif' 
_symmetry_space_group_name_H-M    'P1' 
_symmetry_Int_Tables_number       1 
_symmetry_cell_setting            triclinic 
loop_ 
_symmetry_equiv_pos_as_xyz 
  x,y,z 
_cell_length_a                    34.76558202 
_cell_length_b                    35.32052145472888 
_cell_length_c                    46.80420892574896 
_cell_angle_alpha                 89.76539239586998 
_cell_angle_beta                  89.79643184676635 
_cell_angle_gamma                 90.0221305417619 
loop_ 
_atom_site_label 
_atom_site_type_symbol 
_atom_site_fract_x 
_atom_site_fract_y 
_atom_site_fract_z 
_atom_site_charge 
C1          C  0.29799968  0.18985032  0.83225281     0.80600
N2          N  0.28155055  0.15953163  0.81921361    -0.77700
C3          C  0.29432876  0.14759856  0.79320005     0.83000
N4          N  0.32353254  0.16668877  0.78021108    -0.77700
C5          C  0.34022470  0.19712306  0.79286210     0.83100
N6          N  0.32733052  0.20826154  0.81889254    -0.79400
C7          C  0.07343793  0.14154880  0.62336707     0.80600
N8          N  0.05458561  0.17036953  0.63674196    -0.77700
C9          C  0.06463183  0.18100796  0.66366977     0.83000
N10         N  0.09297029  0.16174184  0.67740365    -0.77700
C11         C  0.11204631  0.13332236  0.66422615     0.83100
N12         N  0.10194765  0.12318009  0.63749862    -0.79400
C13         C  0.11661901  0.37814434  0.84070004     0.80600
N14         N  0.13589486  0.40537625  0.82581064    -0.77700
C15         C  0.12720842  0.41335281  0.79826875     0.83000
N16         N  0.09869025  0.39345280  0.78552772    -0.77700
C17         C  0.07886285  0.36593219  0.79971952     0.83100
N18         N  0.08821150  0.35818107  0.82742603    -0.79400
C19         C  0.36490763  0.42579941  0.62570760     0.80600
N20         N  0.37974283  0.39509252  0.63931999    -0.77700
C21         C  0.36688284  0.38503032  0.66561921     0.83000
N22         N  0.33945875  0.40610824  0.67857264    -0.77700
C23         C  0.32398762  0.43669198  0.66538164     0.83100
N24         N  0.33684627  0.44644350  0.63885193    -0.79400
C25         C  0.46392712  0.28070717  0.73174584    -0.02100
C26         C  0.20988023  0.02855277  0.72900928    -0.02100
O27         O  0.26857836  0.27501658  0.01065725    -0.74100
O28         O  0.21383412  0.33428762  0.95595265    -0.74100
O29         O  0.21718697  0.33214287  0.01416163    -0.74100
O30         O  0.26456999  0.27741416  0.95258269    -0.74200
O31         O  0.21685201  0.23542596  0.95390091    -0.74100
O32         O  0.16895378  0.29064570  0.01489020    -0.74100
O33         O  0.16603923  0.29232204  0.95671719    -0.74100
O34         O  0.22065871  0.23328599  0.01221268    -0.74100
Ni35       Ni  0.24273016  0.30617949  0.98338679     1.25400
Ni36       Ni  0.19142934  0.26141531  0.98455463     1.25400
C37         C  0.25355465  0.24475439  0.02094557     0.88100
C38         C  0.18180982  0.32212773  0.94622420     0.88000
C39         C  0.18531337  0.32030575  0.02484943     0.88100
C40         C  0.24776330  0.24816701  0.94233028     0.88200
O41         O  0.46663751  0.48073071  0.51507218    -0.74100
O42         O  0.01945334  0.03759608  0.45681354    -0.74100
O43         O  0.02099550  0.03569946  0.51501139    -0.74100
O44         O  0.46562797  0.48304097  0.45690443    -0.74200
O45         O  0.41982193  0.02711593  0.45853443    -0.74100
O46         O  0.47487314  0.07914319  0.51674843    -0.74100
O47         O  0.47365012  0.08144577  0.45900983    -0.74100
O48         O  0.42060400  0.02453967  0.51629937    -0.74100
Ni49       Ni  0.49481774  0.00760271  0.48606290     1.25400
Ni50       Ni  0.44566774  0.05457159  0.48777948     1.25400
C51         C  0.43467764  0.99322545  0.52526032     0.88100
C52         C  0.50458812  0.06853132  0.44776012     0.88000
C53         C  0.50694421  0.06597116  0.52575314     0.88100
C54         C  0.43410927  0.99719246  0.44736467     0.88200
C55         C  0.31716637  0.18326317  0.12517446     0.80600
N56         N  0.29622604  0.15641687  0.13927029    -0.77700
C57         C  0.30406437  0.14782163  0.16694307     0.83000
N58         N  0.33269335  0.16635973  0.18069010    -0.77700
C59         C  0.35413547  0.19298385  0.16694137     0.83100
N60         N  0.34595721  0.20120340  0.13926081    -0.79400
C61         C  0.05420314  0.13289965  0.33934510     0.80600
N62         N  0.08273543  0.11423413  0.32528795    -0.77700
C63         C  0.09314577  0.12408712  0.29832078     0.83000
N64         N  0.07469836  0.15332925  0.28542419    -0.77700
C65         C  0.04608469  0.17264900  0.29894601     0.83100
N66         N  0.03589749  0.16209650  0.32594259    -0.79400
C67         C  0.12312183  0.38633632  0.12887184     0.80600
N68         N  0.09263956  0.36859794  0.14153459    -0.77700
C69         C  0.07821577  0.38135348  0.16673283     0.83000
N70         N  0.09487047  0.41141390  0.17958502    -0.77700
C71         C  0.12512097  0.42965801  0.16725869     0.83100
N72         N  0.13926663  0.41689352  0.14191197    -0.79400
C73         C  0.37668192  0.44761958  0.33784863     0.80600
N74         N  0.39560834  0.41915224  0.32413984    -0.77700
C75         C  0.38533442  0.40877139  0.29730045     0.83000
N76         N  0.35573639  0.42701072  0.28424596    -0.77700
C77         C  0.33679021  0.45561556  0.29752861     0.83100
N78         N  0.34752727  0.46578446  0.32422803    -0.79400
C79         C  0.46388683  0.28935113  0.23016747    -0.02100
C80         C  0.21428752  0.03890361  0.23629654    -0.02100
C81         C  0.30212717  0.51546622  0.28568351    -0.11900
C82         C  0.30521879  0.47610153  0.28288315     0.05100
C83         C  0.27965669  0.45733818  0.26463628    -0.07200
C84         C  0.25106019  0.47759578  0.25035895    -0.07900
C85         C  0.24605651  0.51720647  0.25365797    -0.02500
C86         C  0.27435915  0.53629605  0.27052479     0.04300
N87         N  0.27869016  0.07672656  0.26975822     0.66800
H88         H  0.32306373  0.53061097  0.29838198     0.15700
H89         H  0.23424925  0.46146278  0.23545737     0.15400
N90         N  0.28237972  0.41743851  0.26007925     0.74500
O91         O  0.30440175  0.09067842  0.25377347    -0.38900
O92         O  0.26654645  0.09629735  0.29036401    -0.38900
O93         O  0.26425050  0.39501618  0.27629312    -0.39600
O94         O  0.29704549  0.40520715  0.23720761    -0.39600
C95         C  0.46174115  0.34186623  0.26762915    -0.11900
C96         C  0.44014131  0.31779859  0.24942035     0.05100
C97         C  0.39918688  0.32410501  0.24908093    -0.07200
C98         C  0.38293209  0.35351951  0.26507282    -0.07900
C99         C  0.40494504  0.37709767  0.28235820    -0.02500
C100        C  0.44470112  0.37037491  0.28423936     0.04300
N101        N  0.46855346  0.39314176  0.30207117     0.66800
H102        H  0.49265829  0.33846004  0.26892667     0.15700
H103        H  0.35207916  0.35775240  0.26403594     0.15400
N104        N  0.37238331  0.30157136  0.23352158     0.74500
O105        O  0.47838201  0.38095098  0.32635088    -0.38900
O106        O  0.48453442  0.42233975  0.29191890    -0.38900
O107        O  0.34951046  0.28073930  0.24751502    -0.39600
O108        O  0.36280374  0.31179964  0.20870210    -0.39600
C109        C  0.14530719  0.45678519  0.21339238    -0.11900
C110        C  0.14541539  0.45947109  0.18364596     0.05100
C111        C  0.16489566  0.48999896  0.17077081    -0.07200
C112        C  0.18555368  0.51569589  0.18769171    -0.07900
C113        C  0.18896732  0.51122057  0.21775984    -0.02500
C114        C  0.16549744  0.48230087  0.23039674     0.04300
N115        N  0.16155123  0.47756825  0.26055537     0.66800
H116        H  0.12949938  0.43418951  0.22389939     0.15700
H117        H  0.19815311  0.03956439  0.17667557     0.15400
N118        N  0.16222321  0.49667453  0.14072230     0.74500
O119        O  0.13321324  0.49311833  0.27267478    -0.38900
O120        O  0.17563248  0.44821151  0.27190733    -0.38900
O121        O  0.13391390  0.51492071  0.13100370    -0.39600
O122        O  0.19123131  0.49124560  0.12500157    -0.39600
C123        C  0.01007791  0.36764210  0.18057079    -0.11900
C124        C  0.04923480  0.35906812  0.18257030     0.05100
C125        C  0.06107145  0.33148842  0.20214944    -0.07200
C126        C  0.03382026  0.31051365  0.21739212    -0.07900
C127        C  0.99358797  0.31506335  0.21331270    -0.02500
C128        C  0.48229672  0.34727219  0.19658056     0.04300
N129        N  0.44416703  0.36249992  0.19778344     0.66800
H130        H  0.50090578  0.39138491  0.16756556     0.15700
H131        H  0.04539791  0.29143574  0.23317264     0.15400
N132        N  0.10101795  0.32561568  0.20784965     0.74500
O133        O  0.43894339  0.39396941  0.20987831    -0.38900
O134        O  0.41864481  0.35032320  0.18114940    -0.38900
O135        O  0.11739877  0.34512901  0.22678163    -0.39600
O136        O  0.11776527  0.29680659  0.19794936    -0.39600
C137        C  0.02783199  0.20315116  0.25321996    -0.11900
C138        C  0.02499840  0.20301869  0.28302924     0.05100
C139        C  0.00099963  0.23042113  0.29595739    -0.07200
C140        C  0.48151106  0.25725483  0.27905479    -0.07900
C141        C  0.98609678  0.25904541  0.24891232    -0.02500
C142        C  0.00874032  0.22965825  0.23626055     0.04300
N143        N  0.01289110  0.22549463  0.20604167     0.66800
H144        H  0.04449693  0.18162769  0.24244004     0.15700
H145        H  0.46249149  0.27635150  0.29012508     0.15400
N146        N  0.49564821  0.23206234  0.32631044     0.74500
O147        O  0.04509768  0.23312325  0.19487647    -0.38900
O148        O  0.99149958  0.20192316  0.19357560    -0.38900
O149        O  0.52399542  0.23993349  0.34197536    -0.39600
O150        O  0.46206363  0.23492828  0.33642760    -0.39600
C151        C  0.15468932  0.07959754  0.23992958    -0.11900
C152        C  0.18378681  0.06015093  0.25530183     0.05100
C153        C  0.18089561  0.06112877  0.28595824    -0.07200
C154        C  0.15138893  0.08241666  0.29899980    -0.07900
C155        C  0.12386401  0.10247948  0.28312473    -0.02500
C156        C  0.12581891  0.10067743  0.25314504     0.04300
N157        N  0.09822107  0.11933446  0.23545573     0.66800
H158        H  0.15493415  0.07923399  0.21678170     0.15700
H159        H  0.14978022  0.08280597  0.32212378     0.15400
N160        N  0.20536704  0.03993300  0.30480240     0.74500
O161        O  0.10791471  0.14883365  0.22192974    -0.38900
O162        O  0.06788961  0.10209082  0.22850385    -0.38900
O163        O  0.20090918  0.00463576  0.30694238    -0.39600
O164        O  0.22117249  0.05686049  0.32536090    -0.39600
C165        C  0.28607393  0.08190711  0.17987175    -0.11900
C166        C  0.27986517  0.12070995  0.18284318     0.05100
C167        C  0.25277906  0.13344916  0.20279895    -0.07200
C168        C  0.23241516  0.10746255  0.21963029    -0.07900
C169        C  0.23720186  0.06766739  0.21674053    -0.02500
C170        C  0.26581105  0.05543930  0.19663043     0.04300
N171        N  0.27619383  0.01645259  0.19359860     0.66800
H172        H  0.30780296  0.07201652  0.16500797     0.15700
H173        H  0.21409890  0.11953647  0.23583353     0.15400
N174        N  0.24563066  0.17301943  0.20630393     0.74500
O175        O  0.26441921  0.99852669  0.17206490    -0.38900
O176        O  0.30616446  0.00485184  0.20599110    -0.33500
O177        O  0.21971879  0.18878972  0.19168082    -0.39600
O178        O  0.25970566  0.19020325  0.22739883    -0.39600
C179        C  0.40770002  0.24048005  0.16689413    -0.11900
C180        C  0.38417539  0.21519305  0.18229178     0.05100
C181        C  0.38940670  0.21254145  0.21201891    -0.07200
C182        C  0.41488724  0.23687843  0.22565134    -0.07900
C183        C  0.43725026  0.26440332  0.21089964    -0.02500
C184        C  0.43499503  0.26389759  0.18027099     0.04300
N185        N  0.46084158  0.28422263  0.16176940     0.66800
H186        H  0.40589019  0.24131210  0.14383091     0.15700
H187        H  0.41619333  0.23493363  0.24873023     0.15400
N188        N  0.36879053  0.18573779  0.22915342     0.74500
O189        O  0.44717930  0.30341011  0.14137063    -0.38900
O190        O  0.49540105  0.27368620  0.15996332    -0.38900
O191        O  0.38448857  0.15463459  0.23550831    -0.39600
O192        O  0.33931990  0.19623416  0.24276716    -0.39600
C193        C  0.06653098  0.09365746  0.38291377    -0.11900
C194        C  0.04274935  0.11983965  0.36855938     0.05100
C195        C  0.00858760  0.13177847  0.38238077    -0.07200
C196        C  0.99825260  0.11617001  0.40881705    -0.07900
C197        C  0.02073930  0.08830672  0.42219668    -0.02500
C198        C  0.05598216  0.07800201  0.40937078     0.04300
N199        N  0.08155864  0.05184005  0.42283141     0.66800
H200        H  0.09351842  0.08472327  0.37346721     0.15700
H201        H  0.47166922  0.12545922  0.41870131     0.15400
N202        N  0.98297411  0.15863733  0.36980021     0.74500
O203        O  0.08227173  0.01781491  0.41473543    -0.38900
O204        O  0.10824066  0.06419062  0.43845009    -0.38900
O205        O  0.46100909  0.14912191  0.35077963    -0.39600
O206        O  0.97474566  0.18824861  0.38352875    -0.39600
C207        C  0.38828662  0.00307073  0.40709597    -0.11900
C208        C  0.41554211  0.48080786  0.42176348     0.05100
C209        C  0.42728835  0.44614086  0.40960886    -0.07200
C210        C  0.41364326  0.43557348  0.38267092    -0.07900
C211        C  0.38800776  0.45874245  0.36731731    -0.02500
C212        C  0.37440721  0.49228409  0.38041668     0.04300
N213        N  0.34853588  0.01768215  0.36610993     0.66800
H214        H  0.37871288  0.02980945  0.41588811     0.15700
H215        H  0.42369280  0.40915928  0.37364353     0.15400
N216        N  0.45320449  0.42135877  0.42415682     0.74500
O217        O  0.31309318  0.01605340  0.37190206    -0.38900
O218        O  0.36084309  0.54550812  0.35279214    -0.38900
O219        O  0.43999824  0.39562537  0.44019757    -0.39600
O220        O  0.48828119  0.42087865  0.41714813    -0.39600
C221        C  0.19268492  0.35933277  0.06882374    -0.11900
C222        C  0.16825549  0.34010304  0.04993278     0.05100
C223        C  0.12869052  0.33762345  0.05673499    -0.07200
C224        C  0.11477651  0.35284033  0.08242459    -0.07900
C225        C  0.13937177  0.37119732  0.10170268    -0.02500
C226        C  0.17885761  0.37440879  0.09460734     0.04300
N227        N  0.20591235  0.39020862  0.11420252     0.66800
H228        H  0.22324134  0.36096002  0.06432010     0.15700
H229        H  0.08430184  0.35069366  0.08711512     0.15400
N230        N  0.10196665  0.32093440  0.03735591     0.74500
O231        O  0.21394175  0.37244559  0.13686287    -0.38900
O232        O  0.22685992  0.41759373  0.10645021    -0.38900
O233        O  0.08472616  0.29078071  0.04422245    -0.39600
O234        O  0.09078317  0.33958920  0.01588584    -0.39600
C235        C  0.30500095  0.24273602  0.05762034    -0.11900
C236        C  0.27375149  0.22465930  0.04451523     0.05100
C237        C  0.26080241  0.18983469  0.05597389    -0.07200
C238        C  0.27658313  0.17594374  0.08147734    -0.07900
C239        C  0.30579153  0.19571633  0.09588531    -0.02500
C240        C  0.32119908  0.22867723  0.08278871     0.04300
N241        N  0.35230067  0.24934732  0.09511671     0.66800
H242        H  0.31623982  0.26902816  0.04897668     0.15700
H243        H  0.26510499  0.14988881  0.09033874     0.15400
N244        N  0.23159105  0.16821252  0.04215820     0.74500
O245        O  0.38630022  0.24244541  0.08718235    -0.38900
O246        O  0.34538958  0.27904236  0.10913225    -0.38900
O247        O  0.24107577  0.14358256  0.02399659    -0.39600
O248        O  0.19765257  0.16867768  0.05179024    -0.39600
C249        C  0.36041226  0.46378454  0.58090227    -0.11900
C250        C  0.38191825  0.43926910  0.59828772     0.05100
C251        C  0.41990897  0.42992025  0.58976842    -0.07200
C252        C  0.43587456  0.44644749  0.56519617    -0.07900
C253        C  0.41493678  0.47238507  0.54862711    -0.02500
C254        C  0.37612852  0.97985555  0.55615575     0.04300
N255        N  0.35235094  0.00359488  0.53883917     0.66800
H256        H  0.33096607  0.47062019  0.58653118     0.15700
H257        H  0.46554046  0.44014995  0.55984778     0.15400
N258        N  0.44372359  0.40568393  0.60667272     0.74500
O259        O  0.33703291  0.99028575  0.51663423    -0.38900
O260        O  0.34185063  0.03552464  0.54800358    -0.38900
O261        O  0.44980186  0.37211526  0.59871790    -0.39600
O262        O  0.46377781  0.41958455  0.62645656    -0.39600
C263        C  0.26918178  0.48253127  0.66528721    -0.11900
C264        C  0.29538991  0.46052559  0.68075725     0.05100
C265        C  0.29355776  0.46131837  0.71081510    -0.07200
C266        C  0.26570065  0.48309069  0.72453575    -0.07900
C267        C  0.23884060  0.50583430  0.70956358    -0.02500
C268        C  0.24074980  0.00455900  0.67887579     0.04300
N269        N  0.21414332  0.02353504  0.66048644     0.66800
H270        H  0.26985383  0.48173322  0.64213912     0.15700
H271        H  0.26581164  0.48312341  0.74768525     0.15400
N272        N  0.32106066  0.44172839  0.72803775     0.74500
O273        O  0.22696971  0.04727479  0.64260258    -0.38900
O274        O  0.18169146  0.00883071  0.65597344    -0.38900
O275        O  0.35168286  0.45828183  0.73523354    -0.39600
O276        O  0.31193230  0.41086564  0.73993267    -0.39600
C277        C  0.40610020  0.37086698  0.70755108    -0.11900
C278        C  0.38874915  0.35777656  0.68273850     0.05100
C279        C  0.39356871  0.31999370  0.67479289    -0.07200
C280        C  0.41650986  0.29622317  0.69150734    -0.07900
C281        C  0.43804365  0.30958484  0.71504050    -0.02500
C282        C  0.42991643  0.34774030  0.72405191     0.04300
N283        N  0.44396128  0.36426899  0.74992408     0.66800
H284        H  0.40148755  0.39993404  0.71417466     0.15700
H285        H  0.41873018  0.26706103  0.68500082     0.15400
N286        N  0.37470350  0.30510614  0.65020619     0.74500
O287        O  0.47024701  0.38880549  0.74795849    -0.38900
O288        O  0.42106950  0.36675610  0.77081271    -0.38900
O289        O  0.39365099  0.29989752  0.62751837    -0.39600
O290        O  0.34171920  0.29055570  0.65281614    -0.39600
C291        C  0.12530156  0.33328648  0.91491682    -0.11900
C292        C  0.16383755  0.34110252  0.92134737     0.05100
C293        C  0.18534299  0.36396169  0.90230571    -0.07200
C294        C  0.16859167  0.37694218  0.87702500    -0.07900
C295        C  0.13048460  0.36768631  0.86979536    -0.02500
C296        C  0.10833637  0.34656893  0.88965970     0.04300
N297        N  0.06832765  0.33952470  0.88531595     0.66800
H298        H  0.10808336  0.31662322  0.92966155     0.15700
H299        H  0.18650661  0.39286720  0.86231412     0.15400
N300        N  0.22514417  0.37184931  0.90703220     0.74500
O301        O  0.05486736  0.30699410  0.89049176    -0.38900
O302        O  0.04561427  0.36728570  0.88358333    -0.38900
O303        O  0.25037844  0.34971993  0.89720261    -0.39600
O304        O  0.23507209  0.40375599  0.91653926    -0.39600
C305        C  0.14799506  0.44085073  0.75157233    -0.11900
C306        C  0.14994159  0.44168363  0.78145489     0.05100
C307        C  0.17522735  0.46798083  0.79411005    -0.07200
C308        C  0.19482309  0.49454611  0.77712136    -0.07900
C309        C  0.18964184  0.49690494  0.74719403    -0.02500
C310        C  0.16862638  0.46647304  0.73446878     0.04300
N311        N  0.16913712  0.45943322  0.70438254     0.66800
H312        H  0.13128901  0.41910096  0.74105973     0.15700
H313        H  0.21462621  0.01284543  0.78800253     0.15400
N314        N  0.18190944  0.46815819  0.82420813     0.74500
O315        O  0.13827795  0.46286982  0.69051851    -0.38900
O316        O  0.19431605  0.93708491  0.69481279    -0.38900
O317        O  0.21343359  0.45588305  0.83379491    -0.39600
O318        O  0.15996273  0.48693487  0.84032881    -0.39600
C319        C  0.04825991  0.34708854  0.75389852    -0.11900
C320        C  0.04940788  0.34345914  0.78374512     0.05100
C321        C  0.02346670  0.31783852  0.79674353    -0.07200
C322        C  0.49685364  0.29758250  0.78010620    -0.07900
C323        C  0.99385186  0.30291618  0.75034043    -0.02500
C324        C  0.02161227  0.32743477  0.73725615     0.04300
N325        N  0.02376772  0.33296338  0.70695134     0.66800
H326        H  0.06839750  0.36552922  0.74291460     0.15700
H327        H  0.47956222  0.27684343  0.79115778     0.15400
N328        N  0.02284600  0.31191510  0.82685364     0.74500
O329        O  0.00405589  0.35884390  0.69549683    -0.38900
O330        O  0.05299648  0.32085879  0.69378094    -0.38900
O331        O  0.50255178  0.33418058  0.84178372    -0.39600
O332        O  0.53073164  0.27966098  0.83662912    -0.39600
C333        C  0.07425217  0.09034066  0.58682826    -0.11900
C334        C  0.05950939  0.12552967  0.59583524     0.05100
C335        C  0.02957990  0.14212824  0.57974749    -0.07200
C336        C  0.01399875  0.12280557  0.55646709    -0.07900
C337        C  0.02725363  0.08673303  0.54858728    -0.02500
C338        C  0.05833562  0.07081535  0.56378459     0.04300
N339        N  0.07263038  0.03385057  0.55742507     0.66800
H340        H  0.09724262  0.07664783  0.59851882     0.15700
H341        H  0.49245367  0.13669035  0.54402758     0.15400
N342        N  0.01396461  0.17824496  0.58684580     0.74500
O343        O  0.10350729  0.03034304  0.54343754    -0.38900
O344        O  0.05857060  0.00545132  0.57015515    -0.38900
O345        O  0.02889379  0.20762722  0.57612483    -0.39600
O346        O  0.98073403  0.18007746  0.59769309    -0.39600
C347        C  0.19821052  0.08433624  0.69607335    -0.11900
C348        C  0.18127628  0.05421731  0.71199511     0.05100
C349        C  0.13981718  0.05317569  0.71299267    -0.07200
C350        C  0.11861723  0.07956715  0.69708291    -0.07900
C351        C  0.13641382  0.10778424  0.68091869    -0.02500
C352        C  0.17642439  0.11029160  0.68042557     0.04300
N353        N  0.19537715  0.13901425  0.66404316     0.66800
H354        H  0.22920828  0.08717763  0.69511708     0.15700
H355        H  0.08744455  0.07847281  0.69779853     0.15400
N356        N  0.11764746  0.02806479  0.73076582     0.74500
O357        O  0.20631700  0.16905416  0.67603584    -0.38900
O358        O  0.20573238  0.13226754  0.63870692    -0.38900
O359        O  0.11570265  0.03409896  0.75725036    -0.39600
O360        O  0.09094551  0.00908987  0.71952388    -0.39600
C361        C  0.03912663  0.20490137  0.70970900    -0.11900
C362        C  0.04114265  0.20880451  0.67994816     0.05100
C363        C  0.01955169  0.23779405  0.66681219    -0.07200
C364        C  0.99496296  0.26037141  0.68338912    -0.07900
C365        C  0.99062790  0.25512050  0.71323305    -0.02500
C366        C  0.01492164  0.22746802  0.72634282     0.04300
N367        N  0.01595089  0.22171316  0.75665862     0.66800
H368        H  0.05589110  0.18329612  0.72045436     0.15700
H369        H  0.48163694  0.28375875  0.67251922     0.15400
N370        N  0.02422314  0.24680032  0.63711898     0.74500
O371        O  0.99237216  0.19916072  0.76820638    -0.38900
O372        O  0.04640368  0.22979791  0.76991709    -0.38900
O373        O  0.99524218  0.25574518  0.62237627    -0.39600
O374        O  0.05743783  0.25327957  0.62727090    -0.39600
C375        C  0.31028190  0.22450852  0.87765254    -0.11900
C376        C  0.28492596  0.20292494  0.86095106     0.05100
C377        C  0.24799438  0.19468281  0.87209647    -0.07200
C378        C  0.23745239  0.20787847  0.89927606    -0.07900
C379        C  0.26251070  0.23031836  0.91563465    -0.02500
C380        C  0.29949307  0.23828808  0.90452803     0.04300
N381        N  0.32664911  0.26027911  0.92020109     0.66800
H382        H  0.33896091  0.23082441  0.86987873     0.15700
H383        H  0.20857044  0.20211674  0.90691408     0.15400
N384        N  0.21980393  0.17538229  0.85540391     0.74500
O385        O  0.34803508  0.24427228  0.93831281    -0.38900
O386        O  0.33385246  0.29382270  0.91248063    -0.38900
O387        O  0.20740417  0.14349043  0.86346834    -0.39600
O388        O  0.20276628  0.19284623  0.83556323    -0.39600
C389        C  0.23599740  0.10873435  0.78407310    -0.11900
C390        C  0.27481956  0.11565872  0.77834515     0.05100
C391        C  0.29303692  0.09382456  0.75712581    -0.07200
C392        C  0.27242897  0.06596074  0.74238649    -0.07900
C393        C  0.23300466  0.05796638  0.74803025    -0.02500
C394        C  0.21487695  0.08163652  0.76892100     0.04300
N395        N  0.17449233  0.08069148  0.77433741     0.66800
H396        H  0.22095996  0.12604991  0.79956606     0.15700
H397        H  0.28793632  0.05204690  0.72541442     0.15400
N398        N  0.33260693  0.09955678  0.74993089     0.74500
O399        O  0.16298444  0.06728021  0.79790655    -0.38900
O400        O  0.15379802  0.10515484  0.76206577    -0.38900
O401        O  0.35821682  0.08211313  0.76375076    -0.39600
O402        O  0.34124788  0.11523672  0.72649600    -0.39600
C403        C  0.39025690  0.20117011  0.75469470    -0.11900
C404        C  0.37200651  0.21792732  0.77813289     0.05100
C405        C  0.38393019  0.25444190  0.78628309    -0.07200
C406        C  0.41327943  0.27275137  0.77116137    -0.07900
C407        C  0.43357376  0.25587915  0.74835651    -0.02500
C408        C  0.41968121  0.21940658  0.73936922     0.04300
N409        N  0.43298682  0.20024869  0.71426673     0.66800
H410        H  0.38121816  0.17337959  0.74759551     0.15700
H411        H  0.42062847  0.30113509  0.77796471     0.15400
N412        N  0.36601388  0.27410121  0.80940574     0.74500
O413        O  0.45481060  0.17201405  0.71744317    -0.38900
O414        O  0.41211261  0.20124464  0.69227890    -0.38900
O415        O  0.38302463  0.27621257  0.83311945    -0.39600
O416        O  0.33756719  0.29531720  0.80454026    -0.39600
C417        C  0.29811948  0.68987810  0.83226319     0.80600
N418        N  0.28166697  0.65956660  0.81921672    -0.77700
C419        C  0.29442998  0.64765205  0.79319436     0.83000
N420        N  0.32362751  0.66674775  0.78020418    -0.77700
C421        C  0.34032657  0.69717211  0.79286207     0.83100
N422        N  0.32744225  0.70829655  0.81889812    -0.79400
C423        C  0.07346515  0.64150686  0.62335397     0.80600
N424        N  0.05455396  0.67030069  0.63671924    -0.77700
C425        C  0.06459072  0.68097527  0.66364262     0.83000
N426        N  0.09296576  0.66176654  0.67738069    -0.77700
C427        C  0.11209532  0.63337645  0.66421101     0.83100
N428        N  0.10201410  0.62320380  0.63748814    -0.79400
C429        C  0.11663473  0.87797041  0.84070902     0.80600
N430        N  0.13589610  0.90521667  0.82582260    -0.77700
C431        C  0.12718811  0.91321280  0.79828736     0.83000
N432        N  0.09866332  0.89331856  0.78555060    -0.77700
C433        C  0.07884951  0.86578383  0.79973689     0.83100
N434        N  0.08821776  0.85801277  0.82743768    -0.79400
C435        C  0.36477005  0.92569764  0.62568389     0.80600
N436        N  0.37963264  0.89500981  0.63930419    -0.77700
C437        C  0.36679797  0.88495958  0.66561220     0.83000
N438        N  0.33936807  0.90602885  0.67856533    -0.77700
C439        C  0.32386919  0.93659434  0.66536906     0.83100
N440        N  0.33670529  0.94633626  0.63883032    -0.79400
C441        C  0.46399508  0.78079781  0.73175769    -0.02100
C442        C  0.20996225  0.52863778  0.72899003    -0.02100
O443        O  0.26863272  0.77498848  0.01071246    -0.74100
O444        O  0.21385191  0.83423322  0.95600378    -0.74100
O445        O  0.21718020  0.83206367  0.01421554    -0.74100
O446        O  0.26464828  0.77742043  0.95263419    -0.74200
O447        O  0.21697836  0.73538193  0.95392766    -0.74100
O448        O  0.16899604  0.79051287  0.01492867    -0.74100
O449        O  0.16610191  0.79221795  0.95675176    -0.74100
O450        O  0.22075832  0.73320658  0.01224013    -0.74100
Ni451      Ni  0.24276470  0.80614227  0.98344147     1.25400
Ni452      Ni  0.19151361  0.76132393  0.98458569     1.25400
C453        C  0.25363640  0.74470361  0.02098686     0.88100
C454        C  0.18184714  0.82203916  0.94626317     0.88000
C455        C  0.18531927  0.82018634  0.02489858     0.88100
C456        C  0.24787568  0.74816710  0.94236302     0.88200
O457        O  0.46646850  0.98061567  0.51503822    -0.74100
O458        O  0.01955431  0.53750912  0.45684540    -0.74100
O459        O  0.02102783  0.53556044  0.51504734    -0.74100
O460        O  0.46550822  0.98305418  0.45687531    -0.74200
O461        O  0.41989623  0.52705628  0.45853578    -0.74100
O462        O  0.47494530  0.57927226  0.51665525    -0.74100
O463        O  0.47365574  0.58145104  0.45892604    -0.74100
O464        O  0.42073046  0.52461124  0.51629804    -0.74100
Ni465      Ni  0.49493627  0.50768805  0.48604815     1.25400
Ni466      Ni  0.44573619  0.55460507  0.48773470     1.25400
C467        C  0.43483473  0.49332622  0.52528631     0.88100
C468        C  0.50460004  0.56855457  0.44767807     0.88000
C469        C  0.50705412  0.56617321  0.52564798     0.88100
C470        C  0.43420462  0.49712465  0.44739195     0.88200
C471        C  0.31724263  0.68322110  0.12522562     0.80600
N472        N  0.29631751  0.65636335  0.13932326    -0.77700
C473        C  0.30416544  0.64777226  0.16699704     0.83000
N474        N  0.33278385  0.66633103  0.18074282    -0.77700
C475        C  0.35420810  0.69296668  0.16699061     0.83100
N476        N  0.34602308  0.70117572  0.13931064    -0.79400
C477        C  0.05429546  0.63290157  0.33940628     0.80600
N478        N  0.08282491  0.61424672  0.32533968    -0.77700
C479        C  0.09321079  0.62409309  0.29836660     0.83000
N480        N  0.07473756  0.65332111  0.28547047    -0.77700
C481        C  0.04612364  0.67263244  0.29900156     0.83100
N482        N  0.03596250  0.66208375  0.32600523    -0.79400
C483        C  0.12309383  0.88623917  0.12891422     0.80600
N484        N  0.09262400  0.86849774  0.14159227    -0.77700
C485        C  0.07819051  0.88127915  0.16678025     0.83000
N486        N  0.09482590  0.91136607  0.17961011    -0.77700
C487        C  0.12506556  0.92961098  0.16727053     0.83100
N488        N  0.13921680  0.91682472  0.14193187    -0.79400
C489        C  0.37673184  0.94781264  0.33775640     0.80600
N490        N  0.39566270  0.91933434  0.32406511    -0.77700
C491        C  0.38538703  0.90892299  0.29723333     0.83000
N492        N  0.35578131  0.92714068  0.28417102    -0.77700
C493        C  0.33682921  0.95575378  0.29743920     0.83100
N494        N  0.34756642  0.96595243  0.32413159    -0.79400
C495        C  0.46392592  0.78943343  0.23016674    -0.02100
C496        C  0.21434765  0.53887647  0.23635360    -0.02100
C497        C  0.30212234  0.01557328  0.28558881    -0.11900
C498        C  0.30524264  0.97621091  0.28279159     0.05100
C499        C  0.27968334  0.95742336  0.26455696    -0.07200
C500        C  0.25105539  0.97765460  0.25029396    -0.07900
C501        C  0.24602363  0.01726199  0.25359100    -0.02500
C502        C  0.27432724  0.03637788  0.27043998     0.04300
N503        N  0.27874432  0.57664282  0.26985774     0.66800
H504        H  0.32305574  0.03073717  0.29827743     0.15700
H505        H  0.23424480  0.96150589  0.23540163     0.15400
N506        N  0.28244221  0.91752698  0.25999623     0.74500
O507        O  0.30445488  0.59059139  0.25387056    -0.38900
O508        O  0.26663124  0.59620308  0.29047918    -0.38900
O509        O  0.26429907  0.89508844  0.27618861    -0.39600
O510        O  0.29714893  0.90531309  0.23713360    -0.39600
C511        C  0.46178844  0.84197878  0.26760574    -0.11900
C512        C  0.44018488  0.81788734  0.24941725     0.05100
C513        C  0.39922878  0.82418809  0.24908315    -0.07200
C514        C  0.38297778  0.85362478  0.26505313    -0.07900
C515        C  0.40499532  0.87723035  0.28231334    -0.02500
C516        C  0.44475171  0.87051048  0.28419547     0.04300
N517        N  0.46860759  0.89330481  0.30200476     0.66800
H518        H  0.49270655  0.83857828  0.26889910     0.15700
H519        H  0.35212376  0.85785224  0.26402030     0.15400
N520        N  0.37241862  0.80162359  0.23355513     0.74500
O521        O  0.47844212  0.88115171  0.32629379    -0.38900
O522        O  0.48457588  0.92249507  0.29182859    -0.38900
O523        O  0.34957392  0.78079445  0.24757654    -0.39600
O524        O  0.36280220  0.81182128  0.20873644    -0.39600
C525        C  0.14527502  0.95676596  0.21338728    -0.11900
C526        C  0.14535152  0.95944447  0.18364073     0.05100
C527        C  0.16480340  0.98997738  0.17074919    -0.07200
C528        C  0.18546447  0.01568993  0.18765437    -0.07900
C529        C  0.18890955  0.01122539  0.21772105    -0.02500
C530        C  0.16546951  0.98229614  0.23037593     0.04300
N531        N  0.16155784  0.97756911  0.26053740     0.66800
H532        H  0.12949141  0.93416358  0.22390637     0.15700
H533        H  0.19826830  0.53956493  0.17672288     0.15400
N534        N  0.16209732  0.99664186  0.14070091     0.74500
O535        O  0.13321594  0.99309534  0.27266932    -0.38900
O536        O  0.17567914  0.94822934  0.27188667    -0.38900
O537        O  0.13370813  0.01477006  0.13098567    -0.39600
O538        O  0.19112607  0.99133501  0.12497697    -0.39600
C539        C  0.01005827  0.86760781  0.18065139    -0.11900
C540        C  0.04921101  0.85900716  0.18262958     0.05100
C541        C  0.06104694  0.83141677  0.20220021    -0.07200
C542        C  0.03379498  0.81045574  0.21745307    -0.07900
C543        C  0.99356210  0.81502706  0.21338943    -0.02500
C544        C  0.48233567  0.84734852  0.19656758     0.04300
N545        N  0.44421176  0.86259017  0.19778034     0.66800
H546        H  0.50094899  0.89145501  0.16754730     0.15700
H547        H  0.04537396  0.79136994  0.23322745     0.15400
N548        N  0.10099437  0.82552220  0.20788417     0.74500
O549        O  0.43901236  0.89409470  0.20982909    -0.38900
O550        O  0.41864672  0.85035267  0.18120830    -0.38900
O551        O  0.11740688  0.84504738  0.22679406    -0.39600
O552        O  0.11770934  0.79668574  0.19799916    -0.39600
C553        C  0.02780848  0.70310944  0.25327802    -0.11900
C554        C  0.02500854  0.70298910  0.28308887     0.05100
C555        C  0.00101810  0.73039395  0.29602405    -0.07200
C556        C  0.48162411  0.75737430  0.27905608    -0.07900
C557        C  0.98606722  0.75900405  0.24898291    -0.02500
C558        C  0.00869758  0.72961081  0.23632415     0.04300
N559        N  0.01282497  0.72544180  0.20610391     0.66800
H560        H  0.04446623  0.68158386  0.24249352     0.15700
H561        H  0.46263678  0.77649135  0.29013614     0.15400
N562        N  0.49589491  0.73223834  0.32631515     0.74500
O563        O  0.04502618  0.73305875  0.19492561    -0.38900
O564        O  0.99141793  0.70187406  0.19364851    -0.38900
O565        O  0.52432948  0.73994748  0.34193931    -0.39600
O566        O  0.46235722  0.73524540  0.33649345    -0.39600
C567        C  0.15476209  0.57959916  0.23997631    -0.11900
C568        C  0.18384573  0.56013528  0.25535239     0.05100
C569        C  0.18094066  0.56110630  0.28600824    -0.07200
C570        C  0.15144381  0.58241063  0.29904562    -0.07900
C571        C  0.12393121  0.60248773  0.28316852    -0.02500
C572        C  0.12589284  0.60068689  0.25318911     0.04300
N573        N  0.09829766  0.61934529  0.23549838     0.66800
H574        H  0.15501461  0.57923882  0.21682845     0.15700
H575        H  0.14982781  0.58279384  0.32216937     0.15400
N576        N  0.20538107  0.53988097  0.30485608     0.74500
O577        O  0.10798309  0.64886188  0.22199101    -0.38900
O578        O  0.06797603  0.60209571  0.22853144    -0.38900
O579        O  0.20089831  0.50458500  0.30697862    -0.39600
O580        O  0.22117807  0.55678259  0.32543034    -0.39600
C581        C  0.28618756  0.58185637  0.17995264    -0.11900
C582        C  0.27997059  0.62066143  0.18290591     0.05100
C583        C  0.25287703  0.63340853  0.20285367    -0.07200
C584        C  0.23251129  0.60743007  0.21969186    -0.07900
C585        C  0.23729358  0.56763367  0.21681110    -0.02500
C586        C  0.26591590  0.55539624  0.19671437     0.04300
N587        N  0.27629949  0.51640746  0.19369865     0.66800
H588        H  0.30792429  0.57195842  0.16509798     0.15700
H589        H  0.21418764  0.61951158  0.23588711     0.15400
N590        N  0.24571425  0.67297955  0.20633706     0.74500
O591        O  0.26452518  0.49846322  0.17217364    -0.38900
O592        O  0.30626259  0.50481129  0.20610374    -0.33500
O593        O  0.21981218  0.68873155  0.19169319    -0.39600
O594        O  0.25977157  0.69018689  0.22742749    -0.39600
C595        C  0.40773380  0.74050197  0.16692382    -0.11900
C596        C  0.38423130  0.71520714  0.18233322     0.05100
C597        C  0.38946492  0.71258381  0.21206080    -0.07200
C598        C  0.41493516  0.73694538  0.22568032    -0.07900
C599        C  0.43728037  0.76447310  0.21091461    -0.02500
C600        C  0.43501103  0.76395129  0.18028741     0.04300
N601        N  0.46082648  0.78429432  0.16177359     0.66800
H602        H  0.40592086  0.74131742  0.14386079     0.15700
H603        H  0.41625166  0.73501545  0.24875973     0.15400
N604        N  0.36886335  0.68578316  0.22920755     0.74500
O605        O  0.44713055  0.80347587  0.14138418    -0.38900
O606        O  0.49538903  0.77377431  0.15994460    -0.38900
O607        O  0.38458296  0.65469844  0.23558456    -0.39600
O608        O  0.33937998  0.69627248  0.24280918    -0.39600
C609        C  0.06662154  0.59359058  0.38294295    -0.11900
C610        C  0.04286600  0.61983161  0.36862450     0.05100
C611        C  0.00874460  0.63180741  0.38248036    -0.07200
C612        C  0.99841176  0.61617434  0.40890833    -0.07900
C613        C  0.02086221  0.58824821  0.42224800    -0.02500
C614        C  0.05607506  0.57790834  0.40939191     0.04300
N615        N  0.08161710  0.55167291  0.42280742     0.66800
H616        H  0.09358125  0.58462280  0.37347108     0.15700
H617        H  0.47147073  0.62523667  0.41849610     0.15400
N618        N  0.98316978  0.65873596  0.36994428     0.74500
O619        O  0.08224382  0.51765924  0.41468053    -0.38900
O620        O  0.10835669  0.56394524  0.43840707    -0.38900
O621        O  0.46113370  0.64873922  0.35029698    -0.39600
O622        O  0.97510117  0.68838672  0.38367592    -0.39600
C623        C  0.38815631  0.50278513  0.40724424    -0.11900
C624        C  0.41546418  0.98094973  0.42170695     0.05100
C625        C  0.42705426  0.94619344  0.40961856    -0.07200
C626        C  0.41346419  0.93565661  0.38265956    -0.07900
C627        C  0.38803536  0.95894755  0.36722270    -0.02500
C628        C  0.37459399  0.99260211  0.38024514     0.04300
N629        N  0.34809901  0.51721684  0.36639079     0.66800
H630        H  0.37844174  0.52944206  0.41609218     0.15700
H631        H  0.42337984  0.90916070  0.37368659     0.15400
N632        N  0.45273857  0.92127933  0.42426557     0.74500
O633        O  0.31268824  0.51527363  0.37223719    -0.38900
O634        O  0.36155563  0.04580213  0.35245239    -0.38900
O635        O  0.43928985  0.89568091  0.44031852    -0.39600
O636        O  0.48784031  0.92054830  0.41734117    -0.39600
C637        C  0.19263576  0.85932221  0.06882384    -0.11900
C638        C  0.16823871  0.83995980  0.04998665     0.05100
C639        C  0.12869824  0.83735066  0.05684230    -0.07200
C640        C  0.11478296  0.85258246  0.08252677    -0.07900
C641        C  0.13934956  0.87107829  0.10175089    -0.02500
C642        C  0.17880963  0.87441173  0.09460303     0.04300
N643        N  0.20585176  0.89036694  0.11413646     0.66800
H644        H  0.22317585  0.86105473  0.06428080     0.15700
H645        H  0.08432591  0.85033614  0.08725434     0.15400
N646        N  0.10199365  0.82050990  0.03752375     0.74500
O647        O  0.21397753  0.87271275  0.13682572    -0.38900
O648        O  0.22671338  0.91777349  0.10629818    -0.38900
O649        O  0.08492957  0.79027911  0.04444084    -0.39600
O650        O  0.09064114  0.83908747  0.01606528    -0.39600
C651        C  0.30506347  0.74270881  0.05767778    -0.11900
C652        C  0.27383800  0.72461307  0.04455797     0.05100
C653        C  0.26090950  0.68977399  0.05600641    -0.07200
C654        C  0.27668090  0.67588839  0.08151577    -0.07900
C655        C  0.30586551  0.69567713  0.09593660    -0.02500
C656        C  0.32125599  0.72865394  0.08284939     0.04300
N657        N  0.35233432  0.74934463  0.09518985     0.66800
H658        H  0.31628676  0.76901243  0.04904293     0.15700
H659        H  0.26521873  0.64982196  0.09036927     0.15400
N660        N  0.23173299  0.66812848  0.04217125     0.74500
O661        O  0.38634085  0.74249304  0.08724683    -0.38900
O662        O  0.34538917  0.77901485  0.10922612    -0.38900
O663        O  0.24125774  0.64353858  0.02399009    -0.39600
O664        O  0.19779167  0.66853226  0.05179947    -0.39600
C665        C  0.36024831  0.96365061  0.58085990    -0.11900
C666        C  0.38176902  0.93916135  0.59825774     0.05100
C667        C  0.41976734  0.92983119  0.58974455    -0.07200
C668        C  0.43572712  0.94635674  0.56517080    -0.07900
C669        C  0.41477500  0.97226903  0.54858992    -0.02500
C670        C  0.37629819  0.47999786  0.55620516     0.04300
N671        N  0.35253473  0.50378391  0.53891423     0.66800
H672        H  0.33079542  0.97046689  0.58648263     0.15700
H673        H  0.46540096  0.94008089  0.55983159     0.15400
N674        N  0.44359538  0.90561670  0.60665636     0.74500
O675        O  0.33711749  0.49049576  0.51674021    -0.38900
O676        O  0.34213868  0.53574411  0.54808364    -0.38900
O677        O  0.44967660  0.87204128  0.59871878    -0.39600
O678        O  0.46365823  0.91954156  0.62642564    -0.39600
C679        C  0.26907456  0.98244842  0.66529091    -0.11900
C680        C  0.29527713  0.96042727  0.68075335     0.05100
C681        C  0.29344801  0.96120926  0.71081256    -0.07200
C682        C  0.26560783  0.98299467  0.72454024    -0.07900
C683        C  0.23875252  0.00575125  0.70957574    -0.02500
C684        C  0.24084734  0.50463757  0.67886468     0.04300
N685        N  0.21424431  0.52360829  0.66046963     0.66800
H686        H  0.26974104  0.98165765  0.64214259     0.15700
H687        H  0.26572350  0.98301962  0.74768970     0.15400
N688        N  0.32093071  0.94158579  0.72803133     0.74500
O689        O  0.22707257  0.54735736  0.64259356    -0.38900
O690        O  0.18180296  0.50889000  0.65594150    -0.38900
O691        O  0.35154879  0.95812157  0.73525908    -0.39600
O692        O  0.31178217  0.91070839  0.73989598    -0.39600
C693        C  0.40602569  0.87086389  0.70755379    -0.11900
C694        C  0.38870158  0.85774278  0.68273876     0.05100
C695        C  0.39358560  0.81996739  0.67479639    -0.07200
C696        C  0.41656190  0.79623583  0.69151523    -0.07900
C697        C  0.43807182  0.80963699  0.71504907    -0.02500
C698        C  0.42987691  0.84777709  0.72405941     0.04300
N699        N  0.44387686  0.86432348  0.74993879     0.66800
H700        H  0.40136436  0.89992254  0.71417509     0.15700
H701        H  0.41883104  0.76708701  0.68501215     0.15400
N702        N  0.37475273  0.80504472  0.65020787     0.74500
O703        O  0.47014823  0.88887679  0.74798798    -0.38900
O704        O  0.42095126  0.86680753  0.77080727    -0.38900
O705        O  0.39371264  0.79987974  0.62751992    -0.39600
O706        O  0.34180469  0.79041493  0.65281833    -0.39600
C707        C  0.12534735  0.83312606  0.91493393    -0.11900
C708        C  0.16387023  0.84098685  0.92137521     0.05100
C709        C  0.18536299  0.86385182  0.90232961    -0.07200
C710        C  0.16860884  0.87680480  0.87704031    -0.07900
C711        C  0.13051248  0.86751087  0.86980346    -0.02500
C712        C  0.10838289  0.84637267  0.88966634     0.04300
N713        N  0.06839014  0.83926616  0.88531030     0.66800
H714        H  0.10813832  0.81645057  0.92967680     0.15700
H715        H  0.18651367  0.89274174  0.86233017     0.15400
N716        N  0.22515662  0.87177093  0.90706104     0.74500
O717        O  0.05499874  0.80669347  0.89043123    -0.38900
O718        O  0.04562191  0.86699097  0.88365122    -0.38900
O719        O  0.25040968  0.84964395  0.89725502    -0.39600
O720        O  0.23505963  0.90369723  0.91654514    -0.39600
C721        C  0.14792311  0.94075388  0.75159162    -0.11900
C722        C  0.14989891  0.94156351  0.78147377     0.05100
C723        C  0.17518925  0.96785852  0.79412591    -0.07200
C724        C  0.19475980  0.99444352  0.77713772    -0.07900
C725        C  0.18955906  0.99681705  0.74721226    -0.02500
C726        C  0.16853749  0.96638891  0.73448701     0.04300
N727        N  0.16903721  0.95935603  0.70439964     0.66800
H728        H  0.13121314  0.91900725  0.74107878     0.15700
H729        H  0.21468575  0.51294945  0.78798825     0.15400
N730        N  0.18190945  0.96800716  0.82421928     0.74500
O731        O  0.13817044  0.96278478  0.69054387    -0.38900
O732        O  0.19441516  0.43715528  0.69480352    -0.38900
O733        O  0.21344204  0.95571353  0.83377739    -0.39600
O734        O  0.15999046  0.98677776  0.84036466    -0.39600
C735        C  0.04825717  0.84695403  0.75390981    -0.11900
C736        C  0.04938707  0.84332351  0.78375692     0.05100
C737        C  0.02341811  0.81772165  0.79674642    -0.07200
C738        C  0.49691302  0.79764152  0.78012254    -0.07900
C739        C  0.99380978  0.80283155  0.75033289    -0.02500
C740        C  0.02160058  0.82732578  0.73725878     0.04300
N741        N  0.02377921  0.83285396  0.70695479     0.66800
H742        H  0.06841724  0.86537669  0.74293137     0.15700
H743        H  0.47966468  0.77687062  0.79115468     0.15400
N744        N  0.02278005  0.81179438  0.82685585     0.74500
O745        O  0.00409929  0.85875334  0.69549417    -0.38900
O746        O  0.05300316  0.82072110  0.69379349    -0.38900
O747        O  0.50260539  0.83392848  0.84186208    -0.39600
O748        O  0.53105758  0.77957045  0.83656335    -0.39600
C749        C  0.07403355  0.59003540  0.58703408    -0.11900
C750        C  0.05954028  0.62541005  0.59585004     0.05100
C751        C  0.02981609  0.64212372  0.57962202    -0.07200
C752        C  0.01420923  0.62276552  0.55636594    -0.07900
C753        C  0.02723739  0.58654952  0.54865566    -0.02500
C754        C  0.05807802  0.57047417  0.56402513     0.04300
N755        N  0.07201991  0.53330615  0.55790782     0.66800
H756        H  0.09682167  0.57622409  0.59886378     0.15700
H757        H  0.49182453  0.63656126  0.54434492     0.15400
N758        N  0.01445702  0.67840919  0.58654203     0.74500
O759        O  0.10305809  0.52935078  0.54419056    -0.38900
O760        O  0.05741860  0.50514790  0.57060745    -0.38900
O761        O  0.03008065  0.70764642  0.57614854    -0.39600
O762        O  0.98095754  0.68062296  0.59687570    -0.39600
C763        C  0.19827875  0.58441390  0.69604874    -0.11900
C764        C  0.18135285  0.55429493  0.71197521     0.05100
C765        C  0.13989387  0.55325258  0.71298396    -0.07200
C766        C  0.11868590  0.57964595  0.69708360    -0.07900
C767        C  0.13647374  0.60786284  0.68091441    -0.02500
C768        C  0.17648380  0.61036790  0.68040616     0.04300
N769        N  0.19542648  0.63908563  0.66401259     0.66800
H770        H  0.22927593  0.58725673  0.69508521     0.15700
H771        H  0.08751345  0.57854834  0.69780622     0.15400
N772        N  0.11773196  0.52813914  0.73076018     0.74500
O773        O  0.20638948  0.66912232  0.67599820    -0.38900
O774        O  0.20573446  0.63234377  0.63866510    -0.38900
O775        O  0.11577944  0.53418365  0.75724312    -0.39600
O776        O  0.09103965  0.50914977  0.71951948    -0.39600
C777        C  0.03902766  0.70482036  0.70967696    -0.11900
C778        C  0.04106333  0.70874246  0.67991854     0.05100
C779        C  0.01948261  0.73773888  0.66678437    -0.07200
C780        C  0.99489014  0.76031528  0.68336073    -0.07900
C781        C  0.99055304  0.75506082  0.71320539    -0.02500
C782        C  0.01482762  0.72738935  0.72631197     0.04300
N783        N  0.01584830  0.72162330  0.75662693     0.66800
H784        H  0.05578204  0.68320517  0.72041983     0.15700
H785        H  0.48171559  0.78391535  0.67253999     0.15400
N786        N  0.02419055  0.74676607  0.63709851     0.74500
O787        O  0.99224936  0.69908670  0.76816943    -0.38900
O788        O  0.04630450  0.72968267  0.76988993    -0.38900
O789        O  0.99522582  0.75569579  0.62233339    -0.39600
O790        O  0.05741557  0.75328171  0.62728369    -0.39600
C791        C  0.31031526  0.72475560  0.87758422    -0.11900
C792        C  0.28505215  0.70294839  0.86096889     0.05100
C793        C  0.24821867  0.69449238  0.87220678    -0.07200
C794        C  0.23768811  0.70769410  0.89938704    -0.07900
C795        C  0.26264604  0.73035615  0.91565672    -0.02500
C796        C  0.29952631  0.73855510  0.90445285     0.04300
N797        N  0.32656730  0.76083639  0.92000245     0.66800
H798        H  0.33891871  0.73125293  0.86974366     0.15700
H799        H  0.20887927  0.70174557  0.90709634     0.15400
N800        N  0.22009922  0.67494354  0.85561364     0.74500
O801        O  0.34828246  0.74505921  0.93801076    -0.38900
O802        O  0.33335056  0.79444717  0.91223868    -0.38900
O803        O  0.20799987  0.64296917  0.86374379    -0.39600
O804        O  0.20280544  0.69224711  0.83581649    -0.39600
C805        C  0.23608915  0.60880648  0.78406160    -0.11900
C806        C  0.27491093  0.61572809  0.77833064     0.05100
C807        C  0.29311795  0.59391198  0.75709649    -0.07200
C808        C  0.27250492  0.56605702  0.74235421    -0.07900
C809        C  0.23308434  0.55805639  0.74800658    -0.02500
C810        C  0.21496080  0.58172317  0.76890134     0.04300
N811        N  0.17457454  0.58079026  0.77431347     0.66800
H812        H  0.22105802  0.62611509  0.79956191     0.15700
H813        H  0.28800504  0.55215572  0.72537248     0.15400
N814        N  0.33268078  0.59965778  0.74988586     0.74500
O815        O  0.16305863  0.56740050  0.79788740    -0.38900
O816        O  0.15388808  0.60524819  0.76202838    -0.38900
O817        O  0.35830541  0.58219675  0.76367806    -0.39600
O818        O  0.34129784  0.61537192  0.72645911    -0.39600
C819        C  0.39037142  0.70122739  0.75470242    -0.11900
C820        C  0.37210650  0.71797879  0.77813422     0.05100
C821        C  0.38402269  0.75449795  0.78629013    -0.07200
C822        C  0.41336049  0.77277936  0.77116766    -0.07900
C823        C  0.43366964  0.75594765  0.74837140    -0.02500
C824        C  0.41979705  0.71946437  0.73938261     0.04300
N825        N  0.43313278  0.70030633  0.71428857     0.66800
H826        H  0.38133086  0.67339217  0.74759444     0.15700
H827        H  0.42076437  0.80138653  0.77802366     0.15400
N828        N  0.36609799  0.77414825  0.80941200     0.74500
O829        O  0.45499504  0.67210279  0.71747784    -0.38900
O830        O  0.41225948  0.70125754  0.69229886    -0.38900
O831        O  0.38314352  0.77632467  0.83310850    -0.39600
O832        O  0.33762322  0.79532824  0.80454776    -0.39600
C833        C  0.79825214  0.18973897  0.83243448     0.80600
N834        N  0.78182865  0.15939363  0.81941339    -0.77700
C835        C  0.79459627  0.14745966  0.79339685     0.83000
N836        N  0.82376712  0.16657134  0.78038630    -0.77700
C837        C  0.84043785  0.19702910  0.79302080     0.83100
N838        N  0.82754897  0.20816911  0.81905040    -0.79400
C839        C  0.57376573  0.14140583  0.62343993     0.80600
N840        N  0.55477086  0.17018288  0.63676077    -0.77700
C841        C  0.56475146  0.18091508  0.66368335     0.83000
N842        N  0.59312853  0.16176710  0.67746755    -0.77700
C843        C  0.61232617  0.13338533  0.66434485     0.83100
N844        N  0.60231710  0.12316452  0.63761722    -0.79400
C845        C  0.61681303  0.37776814  0.84061954     0.80600
N846        N  0.63606665  0.40501578  0.82572966    -0.77700
C847        C  0.62734619  0.41302382  0.79819867     0.83000
N848        N  0.59881265  0.39313562  0.78546696    -0.77700
C849        C  0.57900181  0.36559863  0.79965681     0.83100
N850        N  0.58838265  0.35781771  0.82735484    -0.79400
C851        C  0.86481291  0.42563785  0.62565025     0.80600
N852        N  0.87966067  0.39494482  0.63927668    -0.77700
C853        C  0.86680464  0.38490144  0.66558192     0.83000
N854        N  0.83937381  0.40597961  0.67852157    -0.77700
C855        C  0.82390304  0.43655641  0.66532824     0.83100
N856        N  0.83675577  0.44629323  0.63879371    -0.79400
C857        C  0.96393081  0.28080321  0.73184294    -0.02100
C858        C  0.71005965  0.02855306  0.72914901    -0.02100
O859        O  0.76866026  0.27509777  0.01078308    -0.74100
O860        O  0.71391325  0.33433798  0.95605301    -0.74100
O861        O  0.71722091  0.33219236  0.01427167    -0.74100
O862        O  0.76469167  0.27750922  0.95270800    -0.74200
O863        O  0.71701659  0.23547750  0.95400882    -0.74100
O864        O  0.66902607  0.29065231  0.01498202    -0.74100
O865        O  0.66616216  0.29232467  0.95680714    -0.74100
O866        O  0.72077354  0.23332814  0.01231361    -0.74100
Ni867      Ni  0.74280813  0.30625155  0.98350480     1.25400
Ni868      Ni  0.69154840  0.26144217  0.98465250     1.25400
C869        C  0.75365795  0.24481312  0.02105318     0.88100
C870        C  0.68191710  0.32213255  0.94630583     0.88000
C871        C  0.68535151  0.32032666  0.02494865     0.88100
C872        C  0.74792107  0.24824838  0.94244655     0.88200
O873        O  0.96654251  0.48054978  0.51500793    -0.74100
O874        O  0.51958401  0.03768322  0.45699417    -0.74100
O875        O  0.52100360  0.03553056  0.51519959    -0.74100
O876        O  0.96553422  0.48280396  0.45683314    -0.74200
O877        O  0.91969344  0.02691018  0.45848700    -0.74100
O878        O  0.97481004  0.07924227  0.51649948    -0.74100
O879        O  0.97345802  0.08130198  0.45878043    -0.74100
O880        O  0.92059634  0.02456944  0.51624553    -0.74100
Ni881      Ni  0.99477299  0.00759932  0.48596842     1.25400
Ni882      Ni  0.94556972  0.05451117  0.48763383     1.25400
C883        C  0.93470398  0.99329357  0.52524947     0.88100
C884        C  0.00440496  0.06839822  0.44754112     0.88000
C885        C  0.00694379  0.06619487  0.52548540     0.88100
C886        C  0.93398772  0.99696573  0.44735579     0.88200
C887        C  0.81723183  0.18320345  0.12524706     0.80600
N888        N  0.79624798  0.15639872  0.13935392    -0.77700
C889        C  0.80410982  0.14777730  0.16702105     0.83000
N890        N  0.83280290  0.16625179  0.18074833    -0.77700
C891        C  0.85428491  0.19283052  0.16698100     0.83100
N892        N  0.84608555  0.20106627  0.13931041    -0.79400
C893        C  0.55425126  0.13303747  0.33951449     0.80600
N894        N  0.58276930  0.11437335  0.32543605    -0.77700
C895        C  0.59307275  0.12414147  0.29842803     0.83000
N896        N  0.57452720  0.15330597  0.28550855    -0.77700
C897        C  0.54592040  0.17262558  0.29904058     0.83100
N898        N  0.53583583  0.16214989  0.32608070    -0.79400
C899        C  0.62302294  0.38634091  0.12893823     0.80600
N900        N  0.59255944  0.36857243  0.14160224    -0.77700
C901        C  0.57809922  0.38133806  0.16678653     0.83000
N902        N  0.59469829  0.41143805  0.17962428    -0.77700
C903        C  0.62493442  0.42970659  0.16730000     0.83100
N904        N  0.63911645  0.41693332  0.14196666    -0.79400
C905        C  0.87651909  0.44740272  0.33779261     0.80600
N906        N  0.89546686  0.41897451  0.32405709    -0.77700
C907        C  0.88520428  0.40863004  0.29720653     0.83000
N908        N  0.85558750  0.42686825  0.28416683    -0.77700
C909        C  0.83662130  0.45544056  0.29747979     0.83100
N910        N  0.84735347  0.46556929  0.32418845    -0.79400
C911        C  0.96400909  0.28932959  0.23009059    -0.02100
C912        C  0.71421240  0.03892989  0.23637070    -0.02100
C913        C  0.80200076  0.51532978  0.28567501    -0.11900
C914        C  0.80505206  0.47596379  0.28285676     0.05100
C915        C  0.77943994  0.45723777  0.26462924    -0.07200
C916        C  0.75084274  0.47753504  0.25037971    -0.07900
C917        C  0.74589083  0.51715403  0.25368735    -0.02500
C918        C  0.77423348  0.53619996  0.27054582     0.04300
N919        N  0.77864784  0.07661561  0.26988826     0.66800
H920        H  0.82296999  0.53044495  0.29836379     0.15700
H921        H  0.73399337  0.46142531  0.23548809     0.15400
N922        N  0.78210827  0.41733550  0.26006923     0.74500
O923        O  0.80432984  0.09057548  0.25388131    -0.38900
O924        O  0.76661160  0.09614257  0.29055225    -0.38900
O925        O  0.76397619  0.39493418  0.27629794    -0.39600
O926        O  0.79672470  0.40508735  0.23718559    -0.39600
C927        C  0.96174079  0.34184688  0.26754658    -0.11900
C928        C  0.94020189  0.31776385  0.24931322     0.05100
C929        C  0.89924247  0.32404829  0.24891799    -0.07200
C930        C  0.88292609  0.35344395  0.26489858    -0.07900
C931        C  0.90487685  0.37701226  0.28223480    -0.02500
C932        C  0.94463678  0.37031785  0.28415785     0.04300
N933        N  0.96842856  0.39306104  0.30205091     0.66800
H934        H  0.99265828  0.33846799  0.26887747     0.15700
H935        H  0.85207341  0.35766004  0.26381962     0.15400
N936        N  0.87249367  0.30151294  0.23330717     0.74500
O937        O  0.97817834  0.38083434  0.32633827    -0.38900
O938        O  0.98445215  0.42226585  0.29194771    -0.38900
O939        O  0.84957680  0.28067659  0.24725697    -0.39600
O940        O  0.86299514  0.31174349  0.20847100    -0.39600
C941        C  0.64507692  0.45685977  0.21343462    -0.11900
C942        C  0.64519561  0.45953969  0.18368760     0.05100
C943        C  0.66467891  0.49006504  0.17081218    -0.07200
C944        C  0.68535954  0.51574502  0.18773201    -0.07900
C945        C  0.68878269  0.51125704  0.21779831    -0.02500
C946        C  0.66528109  0.48236516  0.23043793     0.04300
N947        N  0.66132751  0.47764364  0.26059737     0.66800
H948        H  0.62925853  0.43427193  0.22394253     0.15700
H949        H  0.69805922  0.03969567  0.17674998     0.15400
N950        N  0.66198494  0.49675589  0.14076652     0.74500
O951        O  0.63301315  0.49323664  0.27271557    -0.38900
O952        O  0.67536851  0.44827125  0.27195390    -0.38900
O953        O  0.63364775  0.51497340  0.13106204    -0.39600
O954        O  0.69099288  0.49137411  0.12503627    -0.39600
C955        C  0.50998195  0.36770933  0.18070550    -0.11900
C956        C  0.54912413  0.35904511  0.18262268     0.05100
C957        C  0.56096093  0.33137719  0.20213131    -0.07200
C958        C  0.53371080  0.31042195  0.21739293    -0.07900
C959        C  0.49347769  0.31506711  0.21338672    -0.02500
C960        C  0.98239108  0.34720475  0.19644689     0.04300
N961        N  0.94424509  0.36239530  0.19761003     0.66800
H962        H  0.00099080  0.39126252  0.16737882     0.15700
H963        H  0.54529255  0.29127818  0.23312534     0.15400
N964        N  0.60091263  0.32539976  0.20774766     0.74500
O965        O  0.93896369  0.39382482  0.20974986    -0.38900
O966        O  0.91880162  0.35027801  0.18088516    -0.38900
O967        O  0.61739824  0.34480526  0.22669248    -0.39600
O968        O  0.61757155  0.29660490  0.19774273    -0.39600
C969        C  0.52759660  0.20306935  0.25328990    -0.11900
C970        C  0.52478547  0.20295692  0.28310420     0.05100
C971        C  0.50080564  0.23038133  0.29602172    -0.07200
C972        C  0.98167145  0.25727570  0.27899034    -0.07900
C973        C  0.48593747  0.25902408  0.24897752    -0.02500
C974        C  0.50852629  0.22959655  0.23632577     0.04300
N975        N  0.51264460  0.22541865  0.20610472     0.66800
H976        H  0.54423513  0.18152417  0.24251270     0.15700
H977        H  0.96262798  0.27635415  0.29005550     0.15400
N978        N  0.99585867  0.23209163  0.32625271     0.74500
O979        O  0.54485950  0.23296810  0.19492251    -0.38900
O980        O  0.49117294  0.20191288  0.19364436    -0.38900
O981        O  0.02425591  0.23973623  0.34193219    -0.39600
O982        O  0.96229613  0.23509425  0.33638584    -0.39600
C983        C  0.65465124  0.07969122  0.24001684    -0.11900
C984        C  0.68372527  0.06019934  0.25538287     0.05100
C985        C  0.68081501  0.06114798  0.28603896    -0.07200
C986        C  0.65130983  0.08243836  0.29908652    -0.07900
C987        C  0.62379734  0.10253486  0.28322003    -0.02500
C988        C  0.62577762  0.10076799  0.25323777     0.04300
N989        N  0.59820710  0.11946354  0.23554824     0.66800
H990        H  0.65491114  0.07935842  0.21686873     0.15700
H991        H  0.64969077  0.08279737  0.32221024     0.15400
N992        N  0.70526645  0.03992109  0.30487742     0.74500
O993        O  0.60789955  0.14903431  0.22211167    -0.38900
O994        O  0.56792271  0.10220832  0.22850168    -0.38900
O995        O  0.70082335  0.00461725  0.30696918    -0.39600
O996        O  0.72103458  0.05681068  0.32546956    -0.39600
C997        C  0.78604928  0.08188180  0.17995531    -0.11900
C998        C  0.77988706  0.12069087  0.18293243     0.05100
C999        C  0.75282112  0.13345264  0.20289668    -0.07200
C1000       C  0.73242997  0.10748115  0.21972793    -0.07900
C1001       C  0.73716896  0.06768146  0.21682899    -0.02500
C1002       C  0.76575930  0.05543060  0.19671135     0.04300
N1003       N  0.77609207  0.01643335  0.19366415     0.66800
H1004       H  0.80776003  0.07197070  0.16508465     0.15700
H1005       H  0.71412484  0.11956591  0.23593375     0.15400
N1006       N  0.74571695  0.17302952  0.20640691     0.74500
O1007       O  0.76427625  0.99853118  0.17213169    -0.38900
O1008       O  0.80606131  0.00479303  0.20603750    -0.33500
O1009       O  0.71981240  0.18882925  0.19179459    -0.39600
O1010       O  0.75983508  0.19020010  0.22749202    -0.39600
C1011       C  0.90788562  0.24028009  0.16687121    -0.11900
C1012       C  0.88436540  0.21501974  0.18229988     0.05100
C1013       C  0.88960714  0.21241758  0.21202529    -0.07200
C1014       C  0.91507057  0.23679963  0.22562873    -0.07900
C1015       C  0.93741246  0.26431541  0.21084453    -0.02500
C1016       C  0.93516064  0.26374888  0.18021778     0.04300
N1017       N  0.96097178  0.28408000  0.16169069     0.66800
H1018       H  0.90607323  0.24106560  0.14380799     0.15700
H1019       H  0.91637107  0.23490588  0.24870995     0.15400
N1020       N  0.86900632  0.18563235  0.22918645     0.74500
O1021       O  0.94727446  0.30317768  0.14125729    -0.38900
O1022       O  0.99555330  0.27361041  0.15990301    -0.38900
O1023       O  0.88473444  0.15456260  0.23559339    -0.39600
O1024       O  0.83950506  0.19612528  0.24276503    -0.39600
C1025       C  0.56657975  0.09363075  0.38301687    -0.11900
C1026       C  0.54291578  0.12003119  0.36877965     0.05100
C1027       C  0.50895782  0.13220355  0.38275682    -0.07200
C1028       C  0.49863634  0.11656972  0.40918904    -0.07900
C1029       C  0.52096595  0.08847286  0.42243667    -0.02500
C1030       C  0.55606503  0.07796800  0.40948158     0.04300
N1031       N  0.58151562  0.05156344  0.42280323     0.66800
H1032       H  0.59343313  0.08450728  0.37346482     0.15700
H1033       H  0.97114892  0.12486062  0.41821958     0.15400
N1034       N  0.48355577  0.15938839  0.37035856     0.74500
O1035       O  0.58187670  0.01755326  0.41465998    -0.38900
O1036       O  0.60841940  0.06365586  0.43832754    -0.38900
O1037       O  0.96117500  0.14822277  0.34980317    -0.39600
O1038       O  0.47624057  0.18928305  0.38401895    -0.39600
C1039       C  0.88801797  0.00269183  0.40716836    -0.11900
C1040       C  0.91541352  0.48055751  0.42170518     0.05100
C1041       C  0.92709070  0.44585673  0.40957194    -0.07200
C1042       C  0.91344168  0.43529923  0.38262997    -0.07900
C1043       C  0.88785074  0.45850482  0.36726420    -0.02500
C1044       C  0.87429928  0.49207147  0.38035277     0.04300
N1045       N  0.84807984  0.01718595  0.36626375     0.66800
H1046       H  0.87839165  0.02940469  0.41597325     0.15700
H1047       H  0.92343819  0.40885889  0.37361361     0.15400
N1048       N  0.95290730  0.42101561  0.42415999     0.74500
O1049       O  0.81264823  0.01534423  0.37205812    -0.38900
O1050       O  0.86080282  0.54530387  0.35271776    -0.38900
O1051       O  0.93959838  0.39542824  0.44028740    -0.39600
O1052       O  0.98796784  0.42032628  0.41711804    -0.39600
C1053       C  0.69265175  0.35938426  0.06891769    -0.11900
C1054       C  0.66825742  0.34011049  0.05002657     0.05100
C1055       C  0.62869257  0.33758472  0.05682050    -0.07200
C1056       C  0.61474602  0.35279923  0.08250167    -0.07900
C1057       C  0.63930690  0.37120131  0.10177948    -0.02500
C1058       C  0.67879112  0.37446115  0.09469185     0.04300
N1059       N  0.70581307  0.39031865  0.11428517     0.66800
H1060       H  0.72320766  0.36105136  0.06442059     0.15700
H1061       H  0.58427202  0.35061605  0.08718503     0.15400
N1062       N  0.60199907  0.32085316  0.03743968     0.74500
O1063       O  0.71387505  0.37257929  0.13694950    -0.38900
O1064       O  0.72670322  0.41774500  0.10653049    -0.38900
O1065       O  0.58482917  0.29065680  0.04429656    -0.39600
O1066       O  0.59076136  0.33950330  0.01598315    -0.39600
C1067       C  0.80503975  0.24281798  0.05777056    -0.11900
C1068       C  0.77385962  0.22470366  0.04461008     0.05100
C1069       C  0.76096938  0.18982088  0.05600478    -0.07200
C1070       C  0.77672280  0.17590758  0.08151097    -0.07900
C1071       C  0.80585871  0.19570933  0.09597301    -0.02500
C1072       C  0.82121790  0.22873633  0.08293652     0.04300
N1073       N  0.85223491  0.24946013  0.09532998     0.66800
H1074       H  0.81622926  0.26915924  0.04917714     0.15700
H1075       H  0.76529604  0.14980268  0.09032489     0.15400
N1076       N  0.73186504  0.16815046  0.04210858     0.74500
O1077       O  0.88625276  0.24280665  0.08731664    -0.38900
O1078       O  0.84519380  0.27900588  0.10948884    -0.38900
O1079       O  0.74147177  0.14367647  0.02386181    -0.39600
O1080       O  0.69791778  0.16841196  0.05172834    -0.39600
C1081       C  0.86033345  0.46368026  0.58086963    -0.11900
C1082       C  0.88180913  0.43909033  0.59821731     0.05100
C1083       C  0.91976071  0.42966077  0.58964975    -0.07200
C1084       C  0.93572926  0.44620014  0.56508248    -0.07900
C1085       C  0.91482923  0.47221733  0.54855752    -0.02500
C1086       C  0.87619957  0.98003324  0.55622571     0.04300
N1087       N  0.85244563  0.00388390  0.53897818     0.66800
H1088       H  0.83091231  0.47057609  0.58652851     0.15700
H1089       H  0.96536850  0.43983494  0.55969868     0.15400
N1090       N  0.94353273  0.40530613  0.60649001     0.74500
O1091       O  0.83694001  0.99064430  0.51682158    -0.38900
O1092       O  0.84214102  0.03585764  0.54817706    -0.38900
O1093       O  0.94942591  0.37171903  0.59850348    -0.39600
O1094       O  0.96374806  0.41910594  0.62622354    -0.39600
C1095       C  0.76916746  0.48248386  0.66526915    -0.11900
C1096       C  0.79533354  0.46040562  0.68072041     0.05100
C1097       C  0.79349045  0.46114528  0.71078096    -0.07200
C1098       C  0.76567541  0.48294466  0.72451877    -0.07900
C1099       C  0.73884457  0.50574058  0.70956734    -0.02500
C1100       C  0.74089673  0.00465998  0.67897619     0.04300
N1101       N  0.71431334  0.02371648  0.66061588     0.66800
H1102       H  0.76984687  0.48173043  0.64212023     0.15700
H1103       H  0.76578362  0.48293529  0.74766822     0.15400
N1104       N  0.82092342  0.44144758  0.72799556     0.74500
O1105       O  0.72716879  0.04747926  0.64276101    -0.38900
O1106       O  0.68183425  0.00907529  0.65609390    -0.38900
O1107       O  0.85149839  0.45796886  0.73533968    -0.39600
O1108       O  0.81173546  0.41052157  0.73977066    -0.39600
C1109       C  0.90581654  0.37076408  0.70762722    -0.11900
C1110       C  0.88867118  0.35767941  0.68273174     0.05100
C1111       C  0.89364378  0.31992415  0.67476646    -0.07200
C1112       C  0.91654988  0.29618696  0.69153664    -0.07900
C1113       C  0.93794248  0.30958491  0.71513222    -0.02500
C1114       C  0.92960461  0.34767599  0.72418024     0.04300
N1115       N  0.94337100  0.36415893  0.75015161     0.66800
H1116       H  0.90106461  0.39979519  0.71427811     0.15700
H1117       H  0.91888864  0.26706118  0.68501029     0.15400
N1118       N  0.87498540  0.30502949  0.65009465     0.74500
O1119       O  0.96967510  0.38869795  0.74836420    -0.38900
O1120       O  0.92022419  0.36665125  0.77088530    -0.38900
O1121       O  0.89409862  0.29991282  0.62747100    -0.39600
O1122       O  0.84202239  0.29039241  0.65256584    -0.39600
C1123       C  0.62549207  0.33302599  0.91488495    -0.11900
C1124       C  0.66396183  0.34102845  0.92138821     0.05100
C1125       C  0.68543352  0.36393894  0.90236060    -0.07200
C1126       C  0.66871252  0.37679231  0.87702758    -0.07900
C1127       C  0.63067129  0.36735236  0.86973135    -0.02500
C1128       C  0.60856892  0.34615791  0.88957408     0.04300
N1129       N  0.56862579  0.33888821  0.88516373     0.66800
H1130       H  0.60828984  0.31631168  0.92960743     0.15700
H1131       H  0.68660200  0.39277973  0.86233937     0.15400
N1132       N  0.72517775  0.37201762  0.90716298     0.74500
O1133       O  0.55541004  0.30621278  0.89015625    -0.38900
O1134       O  0.54572148  0.36652287  0.88371598    -0.38900
O1135       O  0.75055459  0.34999059  0.89740474    -0.39600
O1136       O  0.73491720  0.40398116  0.91666897    -0.39600
C1137       C  0.64799111  0.44069727  0.75151520    -0.11900
C1138       C  0.65002398  0.44141897  0.78139813     0.05100
C1139       C  0.67533870  0.46767951  0.79406501    -0.07200
C1140       C  0.69487598  0.49431134  0.77710047    -0.07900
C1141       C  0.68963295  0.49676740  0.74718304    -0.02500
C1142       C  0.66858571  0.46637636  0.73443004     0.04300
N1143       N  0.66907439  0.45940184  0.70433441     0.66800
H1144       H  0.63126290  0.41897883  0.74098537     0.15700
H1145       H  0.71487421  0.01266188  0.78810611     0.15400
N1146       N  0.68213449  0.46773628  0.82414937     0.74500
O1147       O  0.63820514  0.46286264  0.69048644    -0.38900
O1148       O  0.69437809  0.93719785  0.69480473    -0.38900
O1149       O  0.71371391  0.45546374  0.83363779    -0.39600
O1150       O  0.66023432  0.48642994  0.84035978    -0.39600
C1151       C  0.54852048  0.34664919  0.75382448    -0.11900
C1152       C  0.54952539  0.34315092  0.78368093     0.05100
C1153       C  0.52341175  0.31769840  0.79668278    -0.07200
C1154       C  0.99692358  0.29768246  0.78018123    -0.07900
C1155       C  0.49391118  0.30271871  0.75025393    -0.02500
C1156       C  0.52183350  0.32706709  0.73717260     0.04300
N1157       N  0.52411879  0.33248543  0.70686113     0.66800
H1158       H  0.56879639  0.36494952  0.74283949     0.15700
H1159       H  0.97981254  0.27682667  0.79121556     0.15400
N1160       N  0.52255444  0.31199216  0.82681200     0.74500
O1161       O  0.50445309  0.35831565  0.69529880    -0.38900
O1162       O  0.55337952  0.32029394  0.69377570    -0.38900
O1163       O  0.00244424  0.33358213  0.84196642    -0.39600
O1164       O  0.03182157  0.27972058  0.83653580    -0.39600
C1165       C  0.57347598  0.08926941  0.58769356    -0.11900
C1166       C  0.55983226  0.12518600  0.59598988     0.05100
C1167       C  0.53077402  0.14234634  0.57936371    -0.07200
C1168       C  0.51501085  0.12296725  0.55617118    -0.07900
C1169       C  0.52724029  0.08632199  0.54892792    -0.02500
C1170       C  0.55733429  0.06969733  0.56476715     0.04300
N1171       N  0.57012586  0.03195188  0.55929865     0.66800
H1172       H  0.59562643  0.07505005  0.59991287     0.15700
H1173       H  0.99068515  0.13606126  0.54483070     0.15400
N1174       N  0.51631788  0.17915768  0.58577618     0.74500
O1175       O  0.60153159  0.02664645  0.54633093    -0.38900
O1176       O  0.55394109  0.00454456  0.57187660    -0.38900
O1177       O  0.53397923  0.20785274  0.57637859    -0.39600
O1178       O  0.48215311  0.18262031  0.59458625    -0.39600
C1179       C  0.69843429  0.08443207  0.69629692    -0.11900
C1180       C  0.68147584  0.05428776  0.71217793     0.05100
C1181       C  0.64001706  0.05327002  0.71316872    -0.07200
C1182       C  0.61884087  0.07967951  0.69725669    -0.07900
C1183       C  0.63666332  0.10789935  0.68110760    -0.02500
C1184       C  0.67667242  0.11041349  0.68065613     0.04300
N1185       N  0.69564843  0.13916625  0.66431931     0.66800
H1186       H  0.72943311  0.08726419  0.69535463     0.15700
H1187       H  0.58766730  0.07858510  0.69794521     0.15400
N1188       N  0.61782779  0.02814859  0.73092213     0.74500
O1189       O  0.70652986  0.16920272  0.67634604    -0.38900
O1190       O  0.70605874  0.13246364  0.63898872    -0.38900
O1191       O  0.61592012  0.03411835  0.75741642    -0.39600
O1192       O  0.59109306  0.00922798  0.71967109    -0.39600
C1193       C  0.53901876  0.20470328  0.70967232    -0.11900
C1194       C  0.54114144  0.20864727  0.67992133     0.05100
C1195       C  0.51958953  0.23763941  0.66675608    -0.07200
C1196       C  0.49490075  0.26017299  0.68329317    -0.07900
C1197       C  0.49055205  0.25495304  0.71314130    -0.02500
C1198       C  0.51479953  0.22728126  0.72627733     0.04300
N1199       N  0.51580613  0.22155710  0.75659807     0.66800
H1200       H  0.55575115  0.18308988  0.72043596     0.15700
H1201       H  0.98171088  0.28397737  0.67262932     0.15400
N1202       N  0.52450553  0.24676243  0.63710370     0.74500
O1203       O  0.49220228  0.19903800  0.76815407    -0.38900
O1204       O  0.54625645  0.22963541  0.76986209    -0.38900
O1205       O  0.49567308  0.25587689  0.62225990    -0.39600
O1206       O  0.55781756  0.25318266  0.62741774    -0.39600
C1207       C  0.81039604  0.22474319  0.87770502    -0.11900
C1208       C  0.78516497  0.20285694  0.86112220     0.05100
C1209       C  0.74833777  0.19439204  0.87236686    -0.07200
C1210       C  0.73778541  0.20765731  0.89952497    -0.07900
C1211       C  0.76271031  0.23039944  0.91576014    -0.02500
C1212       C  0.79958036  0.23861658  0.90454488     0.04300
N1213       N  0.82657831  0.26100690  0.92004650     0.66800
H1214       H  0.83899191  0.23125624  0.86985732     0.15700
H1215       H  0.70898343  0.20169240  0.90724121     0.15400
N1216       N  0.72024291  0.17477262  0.85579790     0.74500
O1217       O  0.84838646  0.24532458  0.93803934    -0.38900
O1218       O  0.83323598  0.29462702  0.91224557    -0.38900
O1219       O  0.70814688  0.14282283  0.86398644    -0.39600
O1220       O  0.70296198  0.19199940  0.83595656    -0.39600
C1221       C  0.73627360  0.10857372  0.78431156    -0.11900
C1222       C  0.77508201  0.11552109  0.77854801     0.05100
C1223       C  0.79326687  0.09373034  0.75728813    -0.07200
C1224       C  0.77263856  0.06589101  0.74254117    -0.07900
C1225       C  0.73322003  0.05789461  0.74820478    -0.02500
C1226       C  0.71512788  0.08151289  0.76914408     0.04300
N1227       N  0.67475086  0.08056361  0.77458999     0.66800
H1228       H  0.72125953  0.12585369  0.79983887     0.15700
H1229       H  0.78811889  0.05201270  0.72553861     0.15400
N1230       N  0.83281509  0.09950059  0.75004399     0.74500
O1231       O  0.66327022  0.06707759  0.79814234    -0.38900
O1232       O  0.65404813  0.10507360  0.76237920    -0.38900
O1233       O  0.85846834  0.08201574  0.76378953    -0.39600
O1234       O  0.84138276  0.11524582  0.72661917    -0.39600
C1235       C  0.89037298  0.20118939  0.75478381    -0.11900
C1236       C  0.87217530  0.21787156  0.77826824     0.05100
C1237       C  0.88412181  0.25437292  0.78646365    -0.07200
C1238       C  0.91341910  0.27264697  0.77132554    -0.07900
C1239       C  0.93366580  0.25591657  0.74847833    -0.02500
C1240       C  0.91975626  0.21946012  0.73944718     0.04300
N1241       N  0.93302650  0.20037225  0.71430370     0.66800
H1242       H  0.88129242  0.17332896  0.74763207     0.15700
H1243       H  0.92092405  0.30147985  0.77828204     0.15400
N1244       N  0.86625101  0.27396853  0.80963319     0.74500
O1245       O  0.95498972  0.17222990  0.71741639    -0.38900
O1246       O  0.91202259  0.20126774  0.69238085    -0.38900
O1247       O  0.88337707  0.27613720  0.83329807    -0.39600
O1248       O  0.83773705  0.29512496  0.80483691    -0.39600
C1249       C  0.79813323  0.68968762  0.83236227     0.80600
N1250       N  0.78169289  0.65936266  0.81932332    -0.77700
C1251       C  0.79444508  0.64746038  0.79329340     0.83000
N1252       N  0.82361399  0.66658236  0.78028945    -0.77700
C1253       C  0.84029819  0.69702008  0.79294063     0.83100
N1254       N  0.82742699  0.70812868  0.81898228    -0.79400
C1255       C  0.57379133  0.64163403  0.62336274     0.80600
N1256       N  0.55484857  0.67041881  0.63671165    -0.77700
C1257       C  0.56484423  0.68109472  0.66364254     0.83000
N1258       N  0.59319601  0.66188537  0.67740817    -0.77700
C1259       C  0.61235082  0.63349796  0.66425587     0.83100
N1260       N  0.60231933  0.62333268  0.63752123    -0.79400
C1261       C  0.61690357  0.87769825  0.84068158     0.80600
N1262       N  0.63616977  0.90495698  0.82581158    -0.77700
C1263       C  0.62744115  0.91301237  0.79828990     0.83000
N1264       N  0.59888878  0.89316407  0.78554806    -0.77700
C1265       C  0.57906695  0.86561860  0.79971664     0.83100
N1266       N  0.58845433  0.85778767  0.82740548    -0.79400
C1267       C  0.86482118  0.92573344  0.62568908     0.80600
N1268       N  0.87966856  0.89502428  0.63929585    -0.77700
C1269       C  0.86681549  0.88495451  0.66559643     0.83000
N1270       N  0.83939067  0.90602263  0.67855162    -0.77700
C1271       C  0.82392235  0.93661565  0.66537872     0.83100
N1272       N  0.83676986  0.94637869  0.63884824    -0.79400
C1273       C  0.96387449  0.78075392  0.73182217    -0.02100
C1274       C  0.70998143  0.52852573  0.72901592    -0.02100
O1275       O  0.76874601  0.77488734  0.01080023    -0.74100
O1276       O  0.71399332  0.83413922  0.95608665    -0.74100
O1277       O  0.71731405  0.83199171  0.01430246    -0.74100
O1278       O  0.76475201  0.77730045  0.95272445    -0.74200
O1279       O  0.71706716  0.73527980  0.95403347    -0.74100
O1280       O  0.66911669  0.79045753  0.01502219    -0.74100
O1281       O  0.66623156  0.79213802  0.95684529    -0.74100
O1282       O  0.72085423  0.73312432  0.01233981    -0.74100
Ni1283     Ni  0.74288873  0.80604557  0.98352986     1.25400
Ni1284     Ni  0.69162115  0.76124628  0.98468590     1.25400
C1285       C  0.75374440  0.74460437  0.02107244     0.88100
C1286       C  0.68199422  0.82194104  0.94634138     0.88000
C1287       C  0.68544313  0.82013435  0.02498376     0.88100
C1288       C  0.74796407  0.74805014  0.94246023     0.88200
O1289       O  0.96650067  0.98068775  0.51503189    -0.74100
O1290       O  0.51964010  0.53773711  0.45693144    -0.74100
O1291       O  0.52112459  0.53571522  0.51513125    -0.74100
O1292       O  0.96542770  0.98289531  0.45685648    -0.74200
O1293       O  0.91979637  0.52681463  0.45845820    -0.74100
O1294       O  0.97483843  0.57910359  0.51652917    -0.74100
O1295       O  0.97355464  0.58121030  0.45880865    -0.74100
O1296       O  0.92063648  0.52443033  0.51621442    -0.74100
Ni1297     Ni  0.99484446  0.50748591  0.48597321     1.25400
Ni1298     Ni  0.94563699  0.55439491  0.48763222     1.25400
C1299       C  0.93473743  0.49315032  0.52521498     0.88100
C1300       C  0.00451185  0.56831722  0.44757809     0.88000
C1301       C  0.00695536  0.56603990  0.52553261     0.88100
C1302       C  0.93410101  0.49687725  0.44732361     0.88200
C1303       C  0.81735023  0.68303468  0.12526300     0.80600
N1304       N  0.79637953  0.65621912  0.13936729    -0.77700
C1305       C  0.80421192  0.64763059  0.16704364     0.83000
N1306       N  0.83286057  0.66615202  0.18078556    -0.77700
C1307       C  0.85433150  0.69274287  0.16702243     0.83100
N1308       N  0.84616121  0.70094634  0.13934076    -0.79400
C1309       C  0.55424153  0.63305826  0.33943951     0.80600
N1310       N  0.58276015  0.61439175  0.32536926    -0.77700
C1311       C  0.59311173  0.62419566  0.29838050     0.83000
N1312       N  0.57461228  0.65339609  0.28546946    -0.77700
C1313       C  0.54600689  0.67271937  0.29900063     0.83100
N1314       N  0.53587829  0.66221089  0.32602214    -0.79400
C1315       C  0.62309823  0.88633580  0.12891980     0.80600
N1316       N  0.59262339  0.86858684  0.14158582    -0.77700
C1317       C  0.57814331  0.88138322  0.16675440     0.83000
N1318       N  0.59474011  0.91149107  0.17958139    -0.77700
C1319       C  0.62499063  0.92973942  0.16726036     0.83100
N1320       N  0.63918841  0.91694028  0.14193768    -0.79400
C1321       C  0.87650063  0.94747817  0.33780405     0.80600
N1322       N  0.89544948  0.91902947  0.32409201    -0.77700
C1323       C  0.88521827  0.90867856  0.29723561     0.83000
N1324       N  0.85563312  0.92693105  0.28416726    -0.77700
C1325       C  0.83666639  0.95552344  0.29745577     0.83100
N1326       N  0.84736609  0.96565663  0.32417118    -0.79400
C1327       C  0.96397982  0.78929846  0.23016875    -0.02100
C1328       C  0.71420548  0.53887588  0.23638887    -0.02100
C1329       C  0.80202204  0.01540630  0.28565135    -0.11900
C1330       C  0.80511153  0.97604504  0.28280912     0.05100
C1331       C  0.77953516  0.95732175  0.26455091    -0.07200
C1332       C  0.75091913  0.97760961  0.25031401    -0.07900
C1333       C  0.74592288  0.01721837  0.25365246    -0.02500
C1334       C  0.77424616  0.03627000  0.27052398     0.04300
N1335       N  0.77866572  0.57654201  0.26989253     0.66800
H1336       H  0.82296648  0.03052527  0.29835991     0.15700
H1337       H  0.73409344  0.96150512  0.23540391     0.15400
N1338       N  0.78226303  0.91743385  0.25994091     0.74500
O1339       O  0.80437460  0.59047022  0.25389372    -0.38900
O1340       O  0.76661991  0.59609596  0.29053885    -0.38900
O1341       O  0.76407997  0.89497501  0.27609233    -0.39600
O1342       O  0.79699031  0.90525811  0.23707386    -0.39600
C1343       C  0.96172867  0.84182494  0.26762271    -0.11900
C1344       C  0.94018180  0.81773701  0.24939721     0.05100
C1345       C  0.89922347  0.82403066  0.24900588    -0.07200
C1346       C  0.88291856  0.85344920  0.26496971    -0.07900
C1347       C  0.90487842  0.87702930  0.28229059    -0.02500
C1348       C  0.94463479  0.87031844  0.28421981     0.04300
N1349       N  0.96843391  0.89307124  0.30210050     0.66800
H1350       H  0.99264524  0.83843795  0.26895339     0.15700
H1351       H  0.85206703  0.85767403  0.26389047     0.15400
N1352       N  0.87246327  0.80147719  0.23342096     0.74500
O1353       O  0.97813522  0.88088701  0.32641073    -0.38900
O1354       O  0.98451017  0.92223229  0.29197113    -0.38900
O1355       O  0.84957124  0.78064144  0.24739381    -0.39600
O1356       O  0.86292918  0.81169033  0.20858829    -0.39600
C1357       C  0.64515599  0.95686395  0.21339734    -0.11900
C1358       C  0.64525170  0.95956942  0.18365141     0.05100
C1359       C  0.66470009  0.99012079  0.17078361    -0.07200
C1360       C  0.68536189  0.01580993  0.18770970    -0.07900
C1361       C  0.68880504  0.01130314  0.21777382    -0.02500
C1362       C  0.66534414  0.98237480  0.23040650     0.04300
N1363       N  0.66141633  0.97762120  0.26056468     0.66800
H1364       H  0.62936640  0.93425188  0.22389955     0.15700
H1365       H  0.69808812  0.53960898  0.17676518     0.15400
N1366       N  0.66198619  0.99682821  0.14074112     0.74500
O1367       O  0.63308851  0.99316643  0.27270070    -0.38900
O1368       O  0.67550388  0.94825685  0.27190100    -0.38900
O1369       O  0.63359271  0.01496819  0.13104508    -0.39600
O1370       O  0.69101180  0.99154846  0.12500881    -0.39600
C1371       C  0.51002256  0.86777814  0.18068689    -0.11900
C1372       C  0.54916362  0.85910372  0.18259710     0.05100
C1373       C  0.56099897  0.83143674  0.20210595    -0.07200
C1374       C  0.53374857  0.81048983  0.21737232    -0.07900
C1375       C  0.49351395  0.81514103  0.21337288    -0.02500
C1376       C  0.98237093  0.84718027  0.19653390     0.04300
N1377       N  0.94423097  0.86238501  0.19770701     0.66800
H1378       H  0.00097503  0.89123639  0.16746626     0.15700
H1379       H  0.54533451  0.79134989  0.23310548     0.15400
N1380       N  0.60095057  0.82545710  0.20772247     0.74500
O1381       O  0.93897187  0.89384103  0.20981313    -0.38900
O1382       O  0.91875214  0.85022377  0.18103014    -0.38900
O1383       O  0.61745204  0.84490703  0.22663377    -0.39600
O1384       O  0.61759064  0.79662435  0.19776242    -0.39600
C1385       C  0.52764986  0.70315720  0.25326387    -0.11900
C1386       C  0.52488980  0.70306787  0.28307869     0.05100
C1387       C  0.50095426  0.73051477  0.29601557    -0.07200
C1388       C  0.98166866  0.75724111  0.27906262    -0.07900
C1389       C  0.48599263  0.75911485  0.24897276    -0.02500
C1390       C  0.50856004  0.72967830  0.23630982     0.04300
N1391       N  0.51264356  0.72548997  0.20608681     0.66800
H1392       H  0.54426304  0.68159784  0.24247982     0.15700
H1393       H  0.96263834  0.77632595  0.29013414     0.15400
N1394       N  0.99591505  0.73208113  0.32632177     0.74500
O1395       O  0.54484298  0.73304672  0.19488271    -0.38900
O1396       O  0.49116953  0.70196723  0.19364675    -0.38900
O1397       O  0.02432897  0.73975290  0.34197705    -0.39600
O1398       O  0.96236386  0.73507840  0.33647685    -0.39600
C1399       C  0.65467282  0.57967953  0.24000108    -0.11900
C1400       C  0.68372993  0.56018193  0.25538271     0.05100
C1401       C  0.68081848  0.56116180  0.28603703    -0.07200
C1402       C  0.65133001  0.58248622  0.29906853    -0.07900
C1403       C  0.62383258  0.60257991  0.28318681    -0.02500
C1404       C  0.62581074  0.60078479  0.25320762     0.04300
N1405       N  0.59823969  0.61946702  0.23551015     0.66800
H1406       H  0.65493604  0.57932446  0.21685330     0.15700
H1407       H  0.64970674  0.58286917  0.32219191     0.15400
N1408       N  0.70524566  0.53992873  0.30488907     0.74500
O1409       O  0.60793089  0.64902436  0.22205627    -0.38900
O1410       O  0.56794286  0.60221626  0.22848647    -0.38900
O1411       O  0.70077458  0.50462935  0.30699223    -0.39600
O1412       O  0.72101950  0.55681951  0.32547832    -0.39600
C1413       C  0.78611155  0.58174705  0.17998974    -0.11900
C1414       C  0.77997148  0.62056177  0.18295416     0.05100
C1415       C  0.75289514  0.63335130  0.20289929    -0.07200
C1416       C  0.73247705  0.60740303  0.21972983    -0.07900
C1417       C  0.73719137  0.56759888  0.21684433    -0.02500
C1418       C  0.76578829  0.55531742  0.19674321     0.04300
N1419       N  0.77609527  0.51631088  0.19371412     0.66800
H1420       H  0.80782788  0.57181508  0.16513167     0.15700
H1421       H  0.71416868  0.61951076  0.23592357     0.15400
N1422       N  0.74580101  0.67293394  0.20638562     0.74500
O1423       O  0.76427743  0.49840082  0.17218607    -0.38900
O1424       O  0.80604545  0.50465527  0.20610481    -0.33500
O1425       O  0.71995338  0.68873995  0.19172148    -0.39600
O1426       O  0.75985856  0.69010774  0.22749160    -0.39600
C1427       C  0.90788129  0.74024802  0.16693489    -0.11900
C1428       C  0.88436933  0.71497251  0.18235551     0.05100
C1429       C  0.88958494  0.71238531  0.21208501    -0.07200
C1430       C  0.91503238  0.73677742  0.22569584    -0.07900
C1431       C  0.93737683  0.76429593  0.21091775    -0.02500
C1432       C  0.93513485  0.76373182  0.18029000     0.04300
N1433       N  0.96094229  0.78407593  0.16176904     0.66800
H1434       H  0.90608438  0.74103125  0.14387076     0.15700
H1435       H  0.91632674  0.73488304  0.24877746     0.15400
N1436       N  0.86898096  0.68559773  0.22924196     0.74500
O1437       O  0.94723940  0.80319695  0.14135012    -0.38900
O1438       O  0.99551913  0.77359590  0.15996485    -0.38900
O1439       O  0.88469772  0.65451592  0.23563087    -0.39600
O1440       O  0.83949608  0.69609694  0.24283741    -0.39600
C1441       C  0.56660810  0.59374999  0.38297338    -0.11900
C1442       C  0.54286530  0.62002946  0.36868275     0.05100
C1443       C  0.50880825  0.63207540  0.38259022    -0.07200
C1444       C  0.49850427  0.61645556  0.40903047    -0.07900
C1445       C  0.52093300  0.58848467  0.42233901    -0.02500
C1446       C  0.55609924  0.57809030  0.40943784     0.04300
N1447       N  0.58163027  0.55181548  0.42282062     0.66800
H1448       H  0.59352719  0.58472956  0.37346686     0.15700
H1449       H  0.97133584  0.62490105  0.41833571     0.15400
N1450       N  0.48328043  0.65908353  0.37010312     0.74500
O1451       O  0.58217161  0.51779694  0.41470207    -0.38900
O1452       O  0.60843432  0.56404723  0.43837755    -0.38900
O1453       O  0.96124083  0.64836487  0.35001275    -0.39600
O1454       O  0.47547468  0.68882575  0.38380489    -0.39600
C1455       C  0.88806727  0.50256949  0.40717387    -0.11900
C1456       C  0.91529126  0.98064172  0.42174237     0.05100
C1457       C  0.92691243  0.94590002  0.40964746    -0.07200
C1458       C  0.91329915  0.93534183  0.38269484    -0.07900
C1459       C  0.88779079  0.95858444  0.36728450    -0.02500
C1460       C  0.87427889  0.99219013  0.38033918     0.04300
N1461       N  0.84802343  0.51703207  0.36632121     0.66800
H1462       H  0.87839712  0.52925021  0.41600761     0.15700
H1463       H  0.92325476  0.90886954  0.37370683     0.15400
N1464       N  0.95262683  0.92101303  0.42429089     0.74500
O1465       O  0.81260896  0.51512926  0.37216285    -0.38900
O1466       O  0.86093994  0.04543021  0.35266966    -0.38900
O1467       O  0.93921125  0.89551166  0.44044742    -0.39600
O1468       O  0.98769455  0.92019339  0.41727781    -0.39600
C1469       C  0.69270497  0.85937876  0.06886974    -0.11900
C1470       C  0.66833915  0.83994278  0.05005175     0.05100
C1471       C  0.62879734  0.83731294  0.05690201    -0.07200
C1472       C  0.61485375  0.85259108  0.08256197    -0.07900
C1473       C  0.63938893  0.87115563  0.10177067    -0.02500
C1474       C  0.67884759  0.87451880  0.09462527     0.04300
N1475       N  0.70585900  0.89056339  0.11413920     0.66800
H1476       H  0.72324434  0.86113826  0.06433045     0.15700
H1477       H  0.58439701  0.85031959  0.08728387     0.15400
N1478       N  0.60211684  0.82039640  0.03760312     0.74500
O1479       O  0.71406085  0.87294413  0.13682842    -0.38900
O1480       O  0.72662882  0.91802760  0.10628151    -0.38900
O1481       O  0.58513335  0.79012988  0.04454088    -0.39600
O1482       O  0.59069085  0.83893805  0.01614887    -0.39600
C1483       C  0.80516782  0.74259069  0.05775843    -0.11900
C1484       C  0.77395729  0.72449272  0.04462321     0.05100
C1485       C  0.76105273  0.68962659  0.05603729    -0.07200
C1486       C  0.77682117  0.67571915  0.08153971    -0.07900
C1487       C  0.80598469  0.69551091  0.09598004    -0.02500
C1488       C  0.82136137  0.72851306  0.08292039     0.04300
N1489       N  0.85241644  0.74921281  0.09528446     0.66800
H1490       H  0.81637275  0.76891542  0.04914717     0.15700
H1491       H  0.76537812  0.64963135  0.09037090     0.15400
N1492       N  0.73191313  0.66797114  0.04216829     0.74500
O1493       O  0.88642535  0.74245468  0.08730081    -0.38900
O1494       O  0.84543288  0.77882016  0.10938565    -0.38900
O1495       O  0.74147664  0.64348388  0.02391930    -0.39600
O1496       O  0.69797955  0.66825937  0.05181437    -0.39600
C1497       C  0.86032576  0.96380452  0.58092191    -0.11900
C1498       C  0.88181082  0.93921126  0.59826076     0.05100
C1499       C  0.91976417  0.92979835  0.58968834    -0.07200
C1500       C  0.93572347  0.94635154  0.56512299    -0.07900
C1501       C  0.91481164  0.97236547  0.54860304    -0.02500
C1502       C  0.87621727  0.47989682  0.55617316     0.04300
N1503       N  0.85247645  0.50375591  0.53892223     0.66800
H1504       H  0.83090322  0.97068838  0.58658524     0.15700
H1505       H  0.96536271  0.93999445  0.55973385     0.15400
N1506       N  0.94354517  0.90544289  0.60652079     0.74500
O1507       O  0.83696030  0.49051866  0.51676895    -0.38900
O1508       O  0.84219701  0.53574125  0.54811369    -0.38900
O1509       O  0.94942824  0.87185384  0.59853482    -0.39600
O1510       O  0.96377038  0.91924086  0.62624945    -0.39600
C1511       C  0.76919413  0.98254963  0.66535884    -0.11900
C1512       C  0.79536558  0.96045505  0.68079105     0.05100
C1513       C  0.79354199  0.96117060  0.71085239    -0.07200
C1514       C  0.76574020  0.98296412  0.72460958    -0.07900
C1515       C  0.73890409  0.00577765  0.70967787    -0.02500
C1516       C  0.74085613  0.50459867  0.67886688     0.04300
N1517       N  0.71427369  0.52362911  0.66048987     0.66800
H1518       H  0.76985995  0.98181520  0.64220932     0.15700
H1519       H  0.76586453  0.98293704  0.74775904     0.15400
N1520       N  0.82098342  0.94145543  0.72804834     0.74500
O1521       O  0.72712716  0.54737609  0.64262214    -0.38900
O1522       O  0.68179619  0.50897985  0.65597604    -0.38900
O1523       O  0.85157415  0.95796019  0.73537764    -0.39600
O1524       O  0.81179455  0.91052829  0.73982135    -0.39600
C1525       C  0.90586045  0.87078371  0.70761759    -0.11900
C1526       C  0.88868158  0.85771494  0.68273013     0.05100
C1527       C  0.89360502  0.81995375  0.67476501    -0.07200
C1528       C  0.91649863  0.79619348  0.69152618    -0.07900
C1529       C  0.93791557  0.80956745  0.71511733    -0.02500
C1530       C  0.92962851  0.84766919  0.72416553     0.04300
N1531       N  0.94342380  0.86413659  0.75013406     0.66800
H1532       H  0.90114357  0.89981987  0.71426931     0.15700
H1533       H  0.91880245  0.76706583  0.68499969     0.15400
N1534       N  0.87490308  0.80507516  0.65010599     0.74500
O1535       O  0.96973168  0.88867101  0.74833981    -0.38900
O1536       O  0.92030180  0.86661749  0.77088365    -0.38900
O1537       O  0.89398628  0.79993238  0.62747191    -0.39600
O1538       O  0.84192623  0.79047432  0.65259863    -0.39600
C1539       C  0.62557622  0.83285826  0.91491647    -0.11900
C1540       C  0.66404802  0.84084398  0.92142346     0.05100
C1541       C  0.68553060  0.86375480  0.90240238    -0.07200
C1542       C  0.66881144  0.87664187  0.87707911    -0.07900
C1543       C  0.63076358  0.86723054  0.86978224    -0.02500
C1544       C  0.60865623  0.84601884  0.88961241     0.04300
N1545       N  0.56871296  0.83875494  0.88519588     0.66800
H1546       H  0.60836924  0.81613704  0.92963138     0.15700
H1547       H  0.68670702  0.89263476  0.86239810     0.15400
N1548       N  0.72528315  0.87180003  0.90719986     0.74500
O1549       O  0.55549556  0.80607551  0.89017104    -0.38900
O1550       O  0.54580904  0.86639074  0.88375630    -0.38900
O1551       O  0.75063804  0.84974902  0.89744099    -0.39600
O1552       O  0.73505346  0.90375787  0.91669931    -0.39600
C1553       C  0.64808738  0.94071227  0.75162204    -0.11900
C1554       C  0.65012726  0.94141238  0.78150435     0.05100
C1555       C  0.67544609  0.96765992  0.79418102    -0.07200
C1556       C  0.69498014  0.99430533  0.77722555    -0.07900
C1557       C  0.68972526  0.99678372  0.74731022    -0.02500
C1558       C  0.66867239  0.96640542  0.73454631     0.04300
N1559       N  0.66913433  0.95946658  0.70444564     0.66800
H1560       H  0.63135400  0.91900473  0.74108395     0.15700
H1561       H  0.71476736  0.51267401  0.78797774     0.15400
N1562       N  0.68224213  0.96769298  0.82426546     0.74500
O1563       O  0.63826082  0.96297939  0.69061021    -0.38900
O1564       O  0.69434850  0.43714778  0.69471800    -0.38900
O1565       O  0.71381731  0.95540445  0.83374991    -0.39600
O1566       O  0.66033983  0.98636987  0.84048535    -0.39600
C1567       C  0.54851863  0.84680237  0.75387489    -0.11900
C1568       C  0.54956949  0.84321864  0.78372623     0.05100
C1569       C  0.52348569  0.81772249  0.79670810    -0.07200
C1570       C  0.99686156  0.79759185  0.78017475    -0.07900
C1571       C  0.49394505  0.80283604  0.75027598    -0.02500
C1572       C  0.52183291  0.82723475  0.73721067     0.04300
N1573       N  0.52409865  0.83270255  0.70690303     0.66800
H1574       H  0.56876742  0.86514227  0.74290351     0.15700
H1575       H  0.97972062  0.77675287  0.79120247     0.15400
N1576       N  0.52270184  0.81189874  0.82682548     0.74500
O1577       O  0.50441154  0.85853922  0.69536929    -0.38900
O1578       O  0.55336096  0.82055083  0.69379845    -0.38900
O1579       O  0.00243810  0.83351350  0.84197005    -0.39600
O1580       O  0.03166120  0.77957226  0.83653416    -0.39600
C1581       C  0.57395310  0.58986620  0.58730108    -0.11900
C1582       C  0.55985443  0.62549322  0.59588298     0.05100
C1583       C  0.53041553  0.64241215  0.57948799    -0.07200
C1584       C  0.51470899  0.62303778  0.55627452    -0.07900
C1585       C  0.52736205  0.58661810  0.54877974    -0.02500
C1586       C  0.55788131  0.57029078  0.56434830     0.04300
N1587       N  0.57128003  0.53284175  0.55853892     0.66800
H1588       H  0.59646337  0.57586537  0.59929761     0.15700
H1589       H  0.99107691  0.63612277  0.54459597     0.15400
N1590       N  0.51547081  0.67894118  0.58618344     0.74500
O1591       O  0.60249172  0.52824527  0.54516065    -0.38900
O1592       O  0.55594062  0.50503594  0.57120203    -0.38900
O1593       O  0.53202685  0.70794340  0.57622381    -0.39600
O1594       O  0.48166042  0.68172007  0.59585303    -0.39600
C1595       C  0.69841243  0.58439097  0.69614159    -0.11900
C1596       C  0.68142403  0.55425840  0.71201891     0.05100
C1597       C  0.63996546  0.55326476  0.71299349    -0.07200
C1598       C  0.61881531  0.57972141  0.69710637    -0.07900
C1599       C  0.63666470  0.60795384  0.68098646    -0.02500
C1600       C  0.67667709  0.61041322  0.68051977     0.04300
N1601       N  0.69568351  0.63915398  0.66419000     0.66800
H1602       H  0.72941409  0.58719272  0.69519887     0.15700
H1603       H  0.58764072  0.57865430  0.69779286     0.15400
N1604       N  0.61775055  0.52811978  0.73070812     0.74500
O1605       O  0.70661636  0.66916402  0.67622848    -0.38900
O1606       O  0.70609539  0.63244597  0.63886052    -0.38900
O1607       O  0.61582579  0.53403807  0.75720872    -0.39600
O1608       O  0.59101381  0.50923818  0.71942258    -0.39600
C1609       C  0.53917060  0.70488117  0.70965336    -0.11900
C1610       C  0.54126460  0.70883182  0.67990120     0.05100
C1611       C  0.51968385  0.73781677  0.66675140    -0.07200
C1612       C  0.49499791  0.76032986  0.68330385    -0.07900
C1613       C  0.49065351  0.75508198  0.71314878    -0.02500
C1614       C  0.51493628  0.72742904  0.72627165     0.04300
N1615       N  0.51596368  0.72169194  0.75659052     0.66800
H1616       H  0.55592727  0.68327695  0.72040663     0.15700
H1617       H  0.98164528  0.78392652  0.67260238     0.15400
N1618       N  0.52453226  0.74693161  0.63709121     0.74500
O1619       O  0.49236524  0.69917241  0.76815213    -0.38900
O1620       O  0.54642125  0.72976890  0.76984595    -0.38900
O1621       O  0.49565517  0.75599000  0.62227575    -0.39600
O1622       O  0.55781487  0.75339303  0.62736439    -0.39600
C1623       C  0.81035204  0.72459916  0.87766213    -0.11900
C1624       C  0.78508620  0.70275992  0.86107264     0.05100
C1625       C  0.74826827  0.69429596  0.87233401    -0.07200
C1626       C  0.73775753  0.70752036  0.89951330    -0.07900
C1627       C  0.76271594  0.73022147  0.91575401    -0.02500
C1628       C  0.79957788  0.73843291  0.90452281     0.04300
N1629       N  0.82660865  0.76077980  0.92002841     0.66800
H1630       H  0.83894326  0.73110756  0.86980282     0.15700
H1631       H  0.70896038  0.70156174  0.90724234     0.15400
N1632       N  0.72014135  0.67472339  0.85576318     0.74500
O1633       O  0.84843433  0.74505147  0.93798670    -0.38900
O1634       O  0.83327589  0.79440988  0.91225690    -0.38900
O1635       O  0.70801948  0.64277559  0.86393488    -0.39600
O1636       O  0.70286292  0.69199024  0.83594034    -0.39600
C1637       C  0.73612564  0.60857734  0.78417479    -0.11900
C1638       C  0.77493915  0.61552662  0.77843136     0.05100
C1639       C  0.79314496  0.59373669  0.75717994    -0.07200
C1640       C  0.77253751  0.56588545  0.74242991    -0.07900
C1641       C  0.73311711  0.55788257  0.74807587    -0.02500
C1642       C  0.71499808  0.58150970  0.76899814     0.04300
N1643       N  0.67461394  0.58055756  0.77441798     0.66800
H1644       H  0.72109649  0.62585993  0.79969278     0.15700
H1645       H  0.78803457  0.55200354  0.72543727     0.15400
N1646       N  0.83269397  0.59952199  0.74994553     0.74500
O1647       O  0.66310559  0.56707605  0.79796427    -0.38900
O1648       O  0.65392144  0.60505927  0.76218824    -0.38900
O1649       O  0.85834827  0.58204844  0.76369805    -0.39600
O1650       O  0.84126504  0.61526714  0.72652131    -0.39600
C1651       C  0.89025181  0.70117582  0.75471941    -0.11900
C1652       C  0.87204966  0.71785793  0.77820138     0.05100
C1653       C  0.88401292  0.75434812  0.78641064    -0.07200
C1654       C  0.91333262  0.77261350  0.77128760    -0.07900
C1655       C  0.93358362  0.75587896  0.74844285    -0.02500
C1656       C  0.91965696  0.71943414  0.73939865     0.04300
N1657       N  0.93293391  0.70034366  0.71425815     0.66800
H1658       H  0.88116104  0.67332470  0.74755882     0.15700
H1659       H  0.92084725  0.80143154  0.77825004     0.15400
N1660       N  0.86613782  0.77394193  0.80957931     0.74500
O1661       O  0.95486909  0.67218128  0.71737711    -0.38900
O1662       O  0.91195210  0.70126467  0.69232417    -0.38900
O1663       O  0.88324427  0.77608011  0.83325370    -0.39600
O1664       O  0.83764420  0.79512285  0.80477790    -0.39600
loop_ 
_geom_bond_atom_site_label_1 
_geom_bond_atom_site_label_2 
_geom_bond_distance 
_geom_bond_site_symmetry_2 
_ccdc_geom_bond_type 
C1            N2   1.361       .  A
C1            N6   1.358       .  A
C1          C376   1.492       .  S
N2            C3   1.363       .  A
C3            N4   1.359       .  A
C3          C390   1.492       .  S
N4            C5   1.360       .  A
C5            N6   1.357       .  A
C5          C404   1.492       .  S
C7            N8   1.364       .  A
C7           N12   1.357       .  A
C7          C334   1.492       .  S
N8            C9   1.363       .  A
C9           N10   1.360       .  A
C9          C362   1.488       .  S
N10          C11   1.353       .  A
C11          N12   1.350       .  A
C11         C351   1.463       .  S
C13          N14   1.360       .  A
C13          N18   1.366       .  A
C13         C295   1.491       .  S
N14          C15   1.354       .  A
C15          N16   1.356       .  A
C15         C306   1.495       .  S
N16          C17   1.361       .  A
C17          N18   1.365       .  A
C17         C320   1.499       .  S
C19          N20   1.358       .  A
C19          N24   1.364       .  A
C19         C250   1.487       .  S
N20          C21   1.354       .  A
C21          N22   1.353       .  A
C21         C278   1.465       .  S
N22          C23   1.355       .  A
C23          N24   1.361       .  A
C23         C264   1.488       .  S
C25         C281   1.569       .  S
C25         C407   1.573       .  S
C25        C1155   1.566       .  S
C25        C1197   1.563       .  S
C26         C348   1.564       .  S
C26         C393   1.591       .  S
C26         C683   1.576       .  S
C26         C725   1.571   1_545  S
O27         Ni35   1.909   1_554  S
O27          C37   1.281       .  A
O28         Ni35   1.909       .  S
O28          C38   1.279       .  A
O29         Ni35   1.925   1_554  S
O29          C39   1.283       .  A
O30         Ni35   1.922       .  S
O30          C40   1.282       .  A
O31         Ni36   1.920       .  S
O31          C40   1.282       .  A
O32         Ni36   1.923   1_554  S
O32          C39   1.282       .  A
O33         Ni36   1.915       .  S
O33          C38   1.282       .  A
O34         Ni36   1.922   1_554  S
O34          C37   1.282       .  A
Ni35        Ni36   2.383       .  S
C37         C236   1.488       .  S
C38         C292   1.481       .  S
C39         C222   1.490       .  S
C40         C379   1.491       .  S
O41        Ni465   1.923       .  S
O41         C467   1.283       .  A
O42        Ni881   1.924   1_455  S
O42         C884   1.282       .  A
O43        Ni881   1.919   1_455  S
O43         C885   1.281       .  A
O44        Ni465   1.917       .  S
O44         C470   1.281       .  A
O45         Ni50   1.908       .  S
O45          C54   1.281   1_545  A
O46         Ni50   1.908       .  S
O46          C53   1.280       .  A
O47         Ni50   1.908       .  S
O47          C52   1.281       .  A
O48         Ni50   1.909       .  S
O48          C51   1.279   1_545  A
Ni49        O457   1.923   1_545  S
Ni49        O874   1.924       .  S
Ni49        O875   1.919       .  S
Ni49        O460   1.917   1_545  S
Ni49        Ni50   2.383       .  S
C51         C669   1.485       .  S
C51         O457   1.283       .  A
C52        C1029   1.488       .  S
C52         O874   1.282       .  A
C53        C1169   1.484       .  S
C53         O875   1.281       .  A
C54         C624   1.484       .  S
C54         O460   1.281       .  A
C55          N56   1.362       .  A
C55          N60   1.359       .  A
C55         C239   1.493       .  S
N56          C57   1.358       .  A
C57          N58   1.357       .  A
C57         C166   1.472       .  S
N58          C59   1.358       .  A
C59          N60   1.358       .  A
C59         C180   1.494       .  S
C61          N62   1.360       .  A
C61          N66   1.364       .  A
C61         C194   1.494       .  S
N62          C63   1.356       .  A
C63          N64   1.357       .  A
C63         C155   1.493       .  S
N64          C65   1.362       .  A
C65          N66   1.362       .  A
C65         C138   1.497       .  S
C67          N68   1.363       .  A
C67          N72   1.364       .  A
C67         C225   1.491       .  S
N68          C69   1.359       .  A
C69          N70   1.353       .  A
C69         C124   1.474       .  S
N70          C71   1.359       .  A
C71          N72   1.361       .  A
C71         C110   1.485       .  S
C73          N74   1.363       .  A
C73          N78   1.359       .  A
C73         C211   1.490       .  S
N74          C75   1.359       .  A
C75          N76   1.360       .  A
C75          C99   1.486       .  S
N76          C77   1.358       .  A
C77          N78   1.355       .  A
C77          C82   1.483       .  S
C79          C96   1.583       .  S
C79         C183   1.568       .  S
C79         C959   1.577       .  S
C79         C973   1.584       .  S
C80         C152   1.574       .  S
C80         C169   1.578       .  S
C80         C501   1.568       .  S
C80         C529   1.582       .  S
C81          C82   1.401       .  A
C81          C86   1.406       .  A
C81          H88   1.084       .  S
C82          C83   1.403       .  A
C83          C84   1.396       .  A
C83          N90   1.429       .  S
C84          C85   1.419       .  A
C84          H89   1.076       .  S
C85         C496   1.568       .  S
C85          C86   1.434       .  A
C86         N503   1.433       .  S
N87         C502   1.433       .  S
N87          O91   1.262       .  A
N87          O92   1.261       .  A
N90          O94   1.262       .  A
N90          O93   1.262       .  A
C95          C96   1.422       .  A
C95         C100   1.405       .  A
C95         H102   1.084       .  S
C96          C97   1.441       .  A
C97          C98   1.401       .  A
C97         N104   1.429       .  S
C98          C99   1.394       .  A
C98         H103   1.084       .  S
C99         C100   1.405       .  A
C100        N101   1.429       .  S
N101        O105   1.262       .  A
N101        O106   1.262       .  A
N104        O108   1.261       .  A
N104        O107   1.263       .  A
C109        C110   1.395       .  A
C109        C114   1.396       .  A
C109        H116   1.084       .  S
C110        C111   1.406       .  A
C111        C112   1.406       .  A
C111        N118   1.428       .  S
C112        C113   1.421       .  A
C112        H533   1.079       .  S
C113        C496   1.582       .  S
C113        C114   1.432       .  A
C114        N115   1.427       .  S
N115        O119   1.262       .  A
N115        O120   1.263       .  A
H117        C528   1.079       .  S
N118        O122   1.261       .  A
N118        O121   1.262       .  A
C123        C124   1.398       .  A
C123        C960   1.411   1_455  A
C123        H962   1.084       .  S
C124        C125   1.398       .  A
C125        C126   1.395       .  A
C125        N132   1.430       .  S
C126        C127   1.421   1_455  A
C126        H131   1.077       .  S
C127        C911   1.577       .  S
C127        C960   1.435       .  A
C128        C955   1.411       .  A
C128        C959   1.435       .  A
C128        N129   1.432       .  S
N129        O133   1.262       .  A
N129        O134   1.259       .  A
H130        C955   1.084       .  S
N132        O136   1.262       .  A
N132        O135   1.262       .  A
C137        C138   1.398       .  A
C137        C142   1.395       .  A
C137        H144   1.081       .  S
C138        C139   1.415       .  A
C139        C972   1.407   1_455  A
C139        N978   1.430   1_455  S
C140        C971   1.407       .  A
C140        C973   1.417       .  A
C140        H145   1.078       .  S
C141        C911   1.584       .  S
C141        C142   1.432   1_655  A
C141        C972   1.417       .  A
C142        N143   1.429       .  S
N143        O147   1.262       .  A
N143        O148   1.262   1_455  A
N146        C971   1.430       .  S
N146        O150   1.263       .  A
N146        O149   1.262       .  A
C151        C152   1.419       .  A
C151        C156   1.394       .  A
C151        H158   1.084       .  S
C152        C153   1.439       .  A
C153        C154   1.411       .  A
C153        N160   1.436       .  S
C154        C155   1.404       .  A
C154        H159   1.084       .  S
C155        C156   1.406       .  A
C156        N157   1.429       .  S
N157        O161   1.262       .  A
N157        O162   1.262       .  A
N160        O164   1.262       .  A
N160        O163   1.260       .  A
C165        C166   1.395       .  A
C165        C170   1.405       .  A
C165        H172   1.084       .  S
C166        C167   1.400       .  A
C167        C168   1.398       .  A
C167        N174   1.430       .  S
C168        C169   1.422       .  A
C168        H173   1.078       .  S
C169        C170   1.435       .  A
C170        N171   1.431       .  S
N171        O175   1.262   1_545  A
N171        O176   1.262       .  A
N174        O178   1.261       .  A
N174        O177   1.262       .  A
C179        C180   1.406       .  A
C179        C184   1.409       .  A
C179        H186   1.082       .  S
C180        C181   1.407       .  A
C181        C182   1.392       .  A
C181        N188   1.429       .  S
C182        C183   1.420       .  A
C182        H187   1.083       .  S
C183        C184   1.436       .  A
C184        N185   1.436       .  S
N185        O189   1.263       .  A
N185        O190   1.261       .  A
N188        O192   1.261       .  A
N188        O191   1.262       .  A
C193        C194   1.411       .  A
C193        C198   1.402       .  A
C193        H200   1.083       .  S
C194        C195   1.416       .  A
C195        C196   1.398   1_455  A
C195        N202   1.428   1_455  S
C196        C197   1.404   1_655  A
C196       H1033   1.084       .  S
C197        C884   1.487       .  S
C197        C198   1.411       .  A
C198        N199   1.429       .  S
N199        O203   1.262       .  A
N199        O204   1.262       .  A
H201       C1028   1.084       .  S
N202        O206   1.262       .  A
N202       O1037   1.262       .  A
O205       N1034   1.262       .  A
C207        C624   1.404   1_545  A
C207        C628   1.397   1_545  A
C207        H214   1.084       .  S
C208        C470   1.484       .  S
C208        C209   1.412       .  A
C208        C623   1.404       .  A
C209        C210   1.401       .  A
C209        N216   1.429       .  S
C210        C211   1.407       .  A
C210        H215   1.083       .  S
C211        C212   1.417       .  A
C212        C623   1.397       .  A
C212        N629   1.429       .  S
N213        C628   1.429   1_545  S
N213        O217   1.262       .  A
N213        O634   1.262       .  A
N216        O220   1.262       .  A
N216        O219   1.262       .  A
O218        N629   1.262       .  A
C221        C222   1.405       .  A
C221        C226   1.404       .  A
C221        H228   1.084       .  S
C222        C223   1.413       .  A
C223        C224   1.404       .  A
C223        N230   1.429       .  S
C224        C225   1.406       .  A
C224        H229   1.084       .  S
C225        C226   1.416       .  A
C226        N227   1.431       .  S
N227        O231   1.262       .  A
N227        O232   1.262       .  A
N230        O234   1.262       .  A
N230        O233   1.262       .  A
C235        C236   1.404       .  A
C235        C240   1.397       .  A
C235        H242   1.084       .  S
C236        C237   1.413       .  A
C237        C238   1.402       .  A
C237        N244   1.429       .  S
C238        C239   1.408       .  A
C238        H243   1.083       .  S
C239        C240   1.418       .  A
C240        N241   1.429       .  S
N241        O245   1.262       .  A
N241        O246   1.262       .  A
N244        O248   1.262       .  A
N244        O247   1.262       .  A
C249        C250   1.404       .  A
C249        C670   1.400       .  A
C249        H256   1.084       .  S
C250        C251   1.418       .  A
C251        C252   1.400       .  A
C251        N258   1.430       .  S
C252        C253   1.403       .  A
C252        H257   1.084       .  S
C253        C467   1.485       .  S
C253        C670   1.414       .  A
C254        C665   1.400       .  A
C254        C669   1.414       .  A
C254        N255   1.429   1_565  S
N255        O259   1.262   1_545  A
N255        O260   1.262       .  A
N258        O262   1.262       .  A
N258        O261   1.262       .  A
C263        C264   1.400       .  A
C263        C684   1.409       .  A
C263        H270   1.084       .  S
C264        C265   1.408       .  A
C265        C266   1.394       .  A
C265        N272   1.430       .  S
C266        C267   1.417       .  A
C266        H271   1.084       .  S
C267        C442   1.576       .  S
C267        C684   1.439       .  A
C268        C679   1.409   1_545  A
C268        C683   1.439       .  A
C268        N269   1.431       .  S
N269        O273   1.262       .  A
N269        O274   1.261       .  A
N272        O276   1.262       .  A
N272        O275   1.262       .  A
C277        C278   1.391       .  A
C277        C282   1.396       .  A
C277        H284   1.085       .  S
C278        C279   1.397       .  A
C279        C280   1.397       .  A
C279        N286   1.429       .  S
C280        C281   1.416       .  A
C280        H285   1.078       .  S
C281        C282   1.442       .  A
C282        N283   1.434       .  S
N283        O287   1.262       .  A
N283        O288   1.262       .  A
N286        O290   1.262       .  A
N286        O289   1.262       .  A
C291        C292   1.402       .  A
C291        C296   1.402       .  A
C291        H298   1.084       .  S
C292        C293   1.412       .  A
C293        C294   1.396       .  A
C293        N300   1.430       .  S
C294        C295   1.407       .  A
C294        H299   1.083       .  S
C295        C296   1.415       .  A
C296        N297   1.428       .  S
N297        O301   1.263       .  A
N297        O302   1.262       .  A
N300        O304   1.262       .  A
N300        O303   1.262       .  A
C305        C306   1.401       .  A
C305        C310   1.401       .  A
C305        H312   1.084       .  S
C306        C307   1.412       .  A
C307        C308   1.402       .  A
C307        N314   1.429       .  S
C308        C309   1.415       .  A
C308        H729   1.078       .  S
C309        C442   1.571       .  S
C309        C310   1.432       .  A
C310        N311   1.431       .  S
N311        O315   1.261       .  A
N311        O732   1.262       .  A
H313        C724   1.078   1_545  S
N314        O318   1.262       .  A
N314        O317   1.262       .  A
O316        N727   1.262       .  A
C319        C320   1.403       .  A
C319        C324   1.399       .  A
C319        H326   1.083       .  S
C320        C321   1.412       .  A
C321       C1154   1.403   1_455  A
C321        N328   1.424       .  S
C322       C1153   1.403       .  A
C322       C1155   1.412       .  A
C322        H327   1.077       .  S
C323        C857   1.566       .  S
C323        C324   1.431   1_655  A
C323       C1154   1.413       .  A
C324        N325   1.433       .  S
N325        O329   1.262       .  A
N325        O330   1.262       .  A
N328       O1164   1.262       .  A
N328       O1163   1.261       .  A
O331       N1160   1.261       .  A
O332       N1160   1.262       .  A
C333        C334   1.410       .  A
C333        C338   1.398       .  A
C333        H340   1.083       .  S
C334        C335   1.413       .  A
C335        C336   1.399       .  A
C335        N342   1.427       .  S
C336        C337   1.405       .  A
C336       H1173   1.084   1_455  S
C337        C885   1.485       .  S
C337        C338   1.412       .  A
C338        N339   1.429       .  S
N339        O343   1.262       .  A
N339        O344   1.262       .  A
H341       C1168   1.084       .  S
N342        O346   1.262   1_455  A
N342        O345   1.262       .  A
C347        C348   1.423       .  A
C347        C352   1.396       .  A
C347        H354   1.083       .  S
C348        C349   1.442       .  A
C349        C350   1.402       .  A
C349        N356   1.436       .  S
C350        C351   1.392       .  A
C350        H355   1.085       .  S
C351        C352   1.394       .  A
C352        N353   1.429       .  S
N353        O357   1.262       .  A
N353        O358   1.262       .  A
N356        O360   1.262       .  A
N356        O359   1.260       .  A
C361        C362   1.401       .  A
C361        C366   1.397       .  A
C361        H368   1.084       .  S
C362        C363   1.410       .  A
C363        C364   1.403   1_455  A
C363        N370   1.433       .  S
C364        C365   1.416       .  A
C364       H1201   1.077       .  S
C365        C857   1.563       .  S
C365        C366   1.429   1_655  A
C366        N367   1.433       .  S
N367        O371   1.262   1_455  A
N367        O372   1.262       .  A
H369       C1196   1.077       .  S
N370        O374   1.262       .  A
N370        O373   1.263   1_455  A
C375        C376   1.407       .  A
C375        C380   1.401       .  A
C375        H382   1.083       .  S
C376        C377   1.414       .  A
C377        C378   1.404       .  A
C377        N384   1.430       .  S
C378        C379   1.408       .  A
C378        H383   1.084       .  S
C379        C380   1.413       .  A
C380        N381   1.429       .  S
N381        O385   1.262       .  A
N381        O386   1.262       .  A
N384        O388   1.262       .  A
N384        O387   1.262       .  A
C389        C390   1.396       .  A
C389        C394   1.402       .  A
C389        H396   1.084       .  S
C390        C391   1.409       .  A
C391        C392   1.402       .  A
C391        N398   1.429       .  S
C392        C393   1.423       .  A
C392        H397   1.079       .  S
C393        C394   1.433       .  A
C394        N395   1.426       .  S
N395        O399   1.262       .  A
N395        O400   1.262       .  A
N398        O402   1.262       .  A
N398        O401   1.262       .  A
C403        C404   1.399       .  A
C403        C408   1.402       .  A
C403        H410   1.084       .  S
C404        C405   1.409       .  A
C405        C406   1.397       .  A
C405        N412   1.429       .  S
C406        C407   1.412       .  A
C406        H411   1.084       .  S
C407        C408   1.441       .  A
C408        N409   1.434       .  S
N409        O413   1.262       .  A
N409        O414   1.262       .  A
N412        O416   1.262       .  A
N412        O415   1.262       .  A
C417        N418   1.361       .  A
C417        N422   1.358       .  A
C417        C792   1.492       .  S
N418        C419   1.363       .  A
C419        N420   1.359       .  A
C419        C806   1.492       .  S
N420        C421   1.360       .  A
C421        N422   1.357       .  A
C421        C820   1.492       .  S
C423        N424   1.364       .  A
C423        N428   1.357       .  A
C423        C750   1.492       .  S
N424        C425   1.363       .  A
C425        N426   1.360       .  A
C425        C778   1.488       .  S
N426        C427   1.353       .  A
C427        N428   1.350       .  A
C427        C767   1.463       .  S
C429        N430   1.360       .  A
C429        N434   1.366       .  A
C429        C711   1.491       .  S
N430        C431   1.354       .  A
C431        N432   1.356       .  A
C431        C722   1.495       .  S
N432        C433   1.361       .  A
C433        N434   1.365       .  A
C433        C736   1.499       .  S
C435        N436   1.358       .  A
C435        N440   1.365       .  A
C435        C666   1.487       .  S
N436        C437   1.354       .  A
C437        N438   1.353       .  A
C437        C694   1.465       .  S
N438        C439   1.355       .  A
C439        N440   1.361       .  A
C439        C680   1.489       .  S
C441        C697   1.569       .  S
C441       C1571   1.566       .  S
C441       C1613   1.563       .  S
C441        C823   1.573       .  S
C442        C764   1.564       .  S
C442        C809   1.591       .  S
O443       Ni451   1.909   1_554  S
O443        C453   1.281       .  A
O444       Ni451   1.909       .  S
O444        C454   1.279       .  A
O445       Ni451   1.925   1_554  S
O445        C455   1.283       .  A
O446       Ni451   1.921       .  S
O446        C456   1.282       .  A
O447       Ni452   1.920       .  S
O447        C456   1.282       .  A
O448       Ni452   1.923   1_554  S
O448        C455   1.282       .  A
O449       Ni452   1.915       .  S
O449        C454   1.282       .  A
O450       Ni452   1.922   1_554  S
O450        C453   1.282       .  A
Ni451      Ni452   2.383       .  S
C453        C652   1.488       .  S
C454        C708   1.481       .  S
C455        C638   1.490       .  S
C456        C795   1.491       .  S
O458      Ni1297   1.924   1_455  S
O458       C1300   1.282       .  A
O459      Ni1297   1.919   1_455  S
O459       C1301   1.281       .  A
O461       Ni466   1.908       .  S
O461        C470   1.281       .  A
O462       Ni466   1.908       .  S
O462        C469   1.280       .  A
O463       Ni466   1.908       .  S
O463        C468   1.281       .  A
O464       Ni466   1.909       .  S
O464        C467   1.279       .  A
Ni465      O1290   1.924       .  S
Ni465      O1291   1.919       .  S
Ni465      Ni466   2.383       .  S
C468       C1445   1.487       .  S
C468       O1290   1.282       .  A
C469       C1585   1.484       .  S
C469       O1291   1.281       .  A
C471        N472   1.362       .  A
C471        N476   1.358       .  A
C471        C655   1.493       .  S
N472        C473   1.358       .  A
C473        N474   1.357       .  A
C473        C582   1.472       .  S
N474        C475   1.358       .  A
C475        N476   1.358       .  A
C475        C596   1.494       .  S
C477        N478   1.360       .  A
C477        N482   1.364       .  A
C477        C610   1.494       .  S
N478        C479   1.356       .  A
C479        N480   1.357       .  A
C479        C571   1.493       .  S
N480        C481   1.362       .  A
C481        N482   1.362       .  A
C481        C554   1.497       .  S
C483        N484   1.363       .  A
C483        N488   1.364       .  A
C483        C641   1.491       .  S
N484        C485   1.359       .  A
C485        N486   1.353       .  A
C485        C540   1.474       .  S
N486        C487   1.359       .  A
C487        N488   1.361       .  A
C487        C526   1.485       .  S
C489        N490   1.363       .  A
C489        N494   1.359       .  A
C489        C627   1.490       .  S
N490        C491   1.359       .  A
C491        N492   1.360       .  A
C491        C515   1.486       .  S
N492        C493   1.358       .  A
C493        N494   1.355       .  A
C493        C498   1.483       .  S
C495        C512   1.583       .  S
C495       C1375   1.577       .  S
C495       C1389   1.584       .  S
C495        C599   1.568       .  S
C496        C568   1.574       .  S
C496        C585   1.578       .  S
C497        C498   1.401   1_545  A
C497        C502   1.406       .  A
C497        H504   1.084       .  S
C498        C499   1.403       .  A
C499        C500   1.396       .  A
C499        N506   1.429       .  S
C500        C501   1.419   1_565  A
C500        H505   1.076       .  S
C501        C502   1.434       .  A
N503        O507   1.262       .  A
N503        O508   1.261       .  A
N506        O510   1.262       .  A
N506        O509   1.262       .  A
C511        C512   1.422       .  A
C511        C516   1.405       .  A
C511        H518   1.084       .  S
C512        C513   1.441       .  A
C513        C514   1.401       .  A
C513        N520   1.429       .  S
C514        C515   1.394       .  A
C514        H519   1.084       .  S
C515        C516   1.405       .  A
C516        N517   1.429       .  S
N517        O521   1.262       .  A
N517        O522   1.262       .  A
N520        O524   1.261       .  A
N520        O523   1.263       .  A
C525        C526   1.395       .  A
C525        C530   1.396       .  A
C525        H532   1.084       .  S
C526        C527   1.406       .  A
C527        C528   1.406   1_565  A
C527        N534   1.428       .  S
C528        C529   1.421       .  A
C529        C530   1.432   1_545  A
C530        N531   1.427       .  S
N531        O535   1.262       .  A
N531        O536   1.263       .  A
N534        O538   1.261       .  A
N534        O537   1.262   1_565  A
C539        C540   1.398       .  A
C539       C1376   1.411   1_455  A
C539       H1378   1.084       .  S
C540        C541   1.398       .  A
C541        C542   1.395       .  A
C541        N548   1.430       .  S
C542        C543   1.421   1_455  A
C542        H547   1.077       .  S
C543       C1327   1.577       .  S
C543       C1376   1.435       .  A
C544       C1371   1.411       .  A
C544       C1375   1.435       .  A
C544        N545   1.432       .  S
N545        O549   1.262       .  A
N545        O550   1.259       .  A
H546       C1371   1.084       .  S
N548        O552   1.262       .  A
N548        O551   1.262       .  A
C553        C554   1.398       .  A
C553        C558   1.395       .  A
C553        H560   1.081       .  S
C554        C555   1.415       .  A
C555       C1388   1.407   1_455  A
C555       N1394   1.430   1_455  S
C556       C1387   1.407       .  A
C556       C1389   1.417       .  A
C556        H561   1.078       .  S
C557       C1327   1.584       .  S
C557       C1388   1.417       .  A
C557        C558   1.432   1_655  A
C558        N559   1.429       .  S
N559        O563   1.262       .  A
N559        O564   1.262   1_455  A
N562       C1387   1.430       .  S
N562        O566   1.263       .  A
N562        O565   1.262       .  A
C567        C568   1.419       .  A
C567        C572   1.394       .  A
C567        H574   1.084       .  S
C568        C569   1.439       .  A
C569        C570   1.411       .  A
C569        N576   1.436       .  S
C570        C571   1.404       .  A
C570        H575   1.084       .  S
C571        C572   1.406       .  A
C572        N573   1.429       .  S
N573        O577   1.262       .  A
N573        O578   1.262       .  A
N576        O580   1.262       .  A
N576        O579   1.260       .  A
C581        C582   1.395       .  A
C581        C586   1.405       .  A
C581        H588   1.084       .  S
C582        C583   1.400       .  A
C583        C584   1.398       .  A
C583        N590   1.430       .  S
C584        C585   1.422       .  A
C584        H589   1.078       .  S
C585        C586   1.435       .  A
C586        N587   1.431       .  S
N587        O591   1.262       .  A
N587        O592   1.262       .  A
N590        O594   1.261       .  A
N590        O593   1.262       .  A
C595        C596   1.406       .  A
C595        C600   1.409       .  A
C595        H602   1.082       .  S
C596        C597   1.407       .  A
C597        C598   1.392       .  A
C597        N604   1.429       .  S
C598        C599   1.420       .  A
C598        H603   1.083       .  S
C599        C600   1.436       .  A
C600        N601   1.436       .  S
N601        O605   1.263       .  A
N601        O606   1.261       .  A
N604        O608   1.261       .  A
N604        O607   1.262       .  A
C609        C610   1.411       .  A
C609        C614   1.402       .  A
C609        H616   1.083       .  S
C610        C611   1.416       .  A
C611        C612   1.398   1_455  A
C611        N618   1.428   1_455  S
C612        C613   1.404   1_655  A
C612       H1449   1.084       .  S
C613       C1300   1.487       .  S
C613        C614   1.411       .  A
C614        N615   1.429       .  S
N615        O619   1.262       .  A
N615        O620   1.262       .  A
H617       C1444   1.084       .  S
N618        O622   1.262       .  A
N618       O1453   1.262       .  A
O621       N1450   1.262       .  A
C623        H630   1.084       .  S
C624        C625   1.412       .  A
C625        C626   1.401       .  A
C625        N632   1.429       .  S
C626        C627   1.407       .  A
C626        H631   1.083       .  S
C627        C628   1.417       .  A
N629        O633   1.262       .  A
N632        O636   1.262       .  A
N632        O635   1.262       .  A
C637        C638   1.405       .  A
C637        C642   1.404       .  A
C637        H644   1.084       .  S
C638        C639   1.413       .  A
C639        C640   1.404       .  A
C639        N646   1.429       .  S
C640        C641   1.406       .  A
C640        H645   1.084       .  S
C641        C642   1.416       .  A
C642        N643   1.431       .  S
N643        O647   1.262       .  A
N643        O648   1.262       .  A
N646        O650   1.262       .  A
N646        O649   1.262       .  A
C651        C652   1.404       .  A
C651        C656   1.397       .  A
C651        H658   1.084       .  S
C652        C653   1.413       .  A
C653        C654   1.402       .  A
C653        N660   1.429       .  S
C654        C655   1.408       .  A
C654        H659   1.083       .  S
C655        C656   1.418       .  A
C656        N657   1.429       .  S
N657        O661   1.262       .  A
N657        O662   1.262       .  A
N660        O664   1.262       .  A
N660        O663   1.262       .  A
C665        C666   1.404       .  A
C665        H672   1.084       .  S
C666        C667   1.418       .  A
C667        C668   1.400       .  A
C667        N674   1.430       .  S
C668        C669   1.403       .  A
C668        H673   1.084       .  S
C670        N671   1.429       .  S
N671        O675   1.262       .  A
N671        O676   1.262       .  A
N674        O678   1.262       .  A
N674        O677   1.262       .  A
C679        C680   1.400       .  A
C679        H686   1.084       .  S
C680        C681   1.408       .  A
C681        C682   1.394       .  A
C681        N688   1.430       .  S
C682        C683   1.417   1_565  A
C682        H687   1.084       .  S
C684        N685   1.431       .  S
N685        O689   1.262       .  A
N685        O690   1.261       .  A
N688        O692   1.262       .  A
N688        O691   1.262       .  A
C693        C694   1.391       .  A
C693        C698   1.396       .  A
C693        H700   1.085       .  S
C694        C695   1.397       .  A
C695        C696   1.397       .  A
C695        N702   1.429       .  S
C696        C697   1.416       .  A
C696        H701   1.078       .  S
C697        C698   1.441       .  A
C698        N699   1.434       .  S
N699        O703   1.262       .  A
N699        O704   1.262       .  A
N702        O706   1.262       .  A
N702        O705   1.262       .  A
C707        C708   1.402       .  A
C707        C712   1.402       .  A
C707        H714   1.084       .  S
C708        C709   1.412       .  A
C709        C710   1.397       .  A
C709        N716   1.430       .  S
C710        C711   1.407       .  A
C710        H715   1.083       .  S
C711        C712   1.415       .  A
C712        N713   1.428       .  S
N713        O717   1.263       .  A
N713        O718   1.262       .  A
N716        O720   1.262       .  A
N716        O719   1.262       .  A
C721        C722   1.401       .  A
C721        C726   1.401       .  A
C721        H728   1.084       .  S
C722        C723   1.412       .  A
C723        C724   1.402       .  A
C723        N730   1.429       .  S
C724        C725   1.415       .  A
C725        C726   1.432       .  A
C726        N727   1.431       .  S
N727        O731   1.261       .  A
N730        O734   1.262       .  A
N730        O733   1.262       .  A
C735        C736   1.403       .  A
C735        C740   1.399       .  A
C735        H742   1.083       .  S
C736        C737   1.412       .  A
C737       C1570   1.403   1_455  A
C737        N744   1.424       .  S
C738       C1569   1.403       .  A
C738       C1571   1.412       .  A
C738        H743   1.076       .  S
C739       C1273   1.566       .  S
C739       C1570   1.413       .  A
C739        C740   1.431   1_655  A
C740        N741   1.433       .  S
N741        O745   1.262       .  A
N741        O746   1.262       .  A
N744       O1580   1.262       .  A
N744       O1579   1.261       .  A
O747       N1576   1.261       .  A
O748       N1576   1.262       .  A
C749        C750   1.410       .  A
C749        C754   1.398       .  A
C749        H756   1.083       .  S
C750        C751   1.413       .  A
C751        C752   1.399       .  A
C751        N758   1.427       .  S
C752        C753   1.405       .  A
C752       H1589   1.084   1_455  S
C753       C1301   1.485       .  S
C753        C754   1.411       .  A
C754        N755   1.429       .  S
N755        O759   1.262       .  A
N755        O760   1.262       .  A
H757       C1584   1.084       .  S
N758        O762   1.262   1_455  A
N758        O761   1.262       .  A
C763        C764   1.423       .  A
C763        C768   1.396       .  A
C763        H770   1.083       .  S
C764        C765   1.442       .  A
C765        C766   1.402       .  A
C765        N772   1.436       .  S
C766        C767   1.392       .  A
C766        H771   1.085       .  S
C767        C768   1.394       .  A
C768        N769   1.429       .  S
N769        O773   1.262       .  A
N769        O774   1.262       .  A
N772        O776   1.262       .  A
N772        O775   1.260       .  A
C777        C778   1.401       .  A
C777        C782   1.397       .  A
C777        H784   1.084       .  S
C778        C779   1.410       .  A
C779        C780   1.403   1_455  A
C779        N786   1.433       .  S
C780        C781   1.416       .  A
C780       H1617   1.077       .  S
C781       C1273   1.563       .  S
C781        C782   1.429   1_655  A
C782        N783   1.433       .  S
N783        O787   1.262   1_455  A
N783        O788   1.262       .  A
H785       C1612   1.077       .  S
N786        O790   1.262       .  A
N786        O789   1.263   1_455  A
C791        C792   1.407       .  A
C791        C796   1.401       .  A
C791        H798   1.083       .  S
C792        C793   1.414       .  A
C793        C794   1.404       .  A
C793        N800   1.430       .  S
C794        C795   1.408       .  A
C794        H799   1.084       .  S
C795        C796   1.413       .  A
C796        N797   1.429       .  S
N797        O801   1.262       .  A
N797        O802   1.262       .  A
N800        O804   1.262       .  A
N800        O803   1.262       .  A
C805        C806   1.396       .  A
C805        C810   1.402       .  A
C805        H812   1.084       .  S
C806        C807   1.409       .  A
C807        C808   1.402       .  A
C807        N814   1.429       .  S
C808        C809   1.423       .  A
C808        H813   1.079       .  S
C809        C810   1.433       .  A
C810        N811   1.426       .  S
N811        O815   1.262       .  A
N811        O816   1.262       .  A
N814        O818   1.262       .  A
N814        O817   1.262       .  A
C819        C820   1.399       .  A
C819        C824   1.402       .  A
C819        H826   1.086       .  S
C820        C821   1.409       .  A
C821        C822   1.396       .  A
C821        N828   1.429       .  S
C822        C823   1.411       .  A
C822        H827   1.092       .  S
C823        C824   1.441       .  A
C824        N825   1.434       .  S
N825        O829   1.262       .  A
N825        O830   1.262       .  A
N828        O832   1.262       .  A
N828        O831   1.262       .  A
C833        N834   1.361       .  A
C833        N838   1.358       .  A
C833       C1208   1.492       .  S
N834        C835   1.363       .  A
C835        N836   1.359       .  A
C835       C1222   1.492       .  S
N836        C837   1.360       .  A
C837        N838   1.356       .  A
C837       C1236   1.492       .  S
C839        N840   1.364       .  A
C839        N844   1.357       .  A
C839       C1166   1.491       .  S
N840        C841   1.363       .  A
C841        N842   1.360       .  A
C841       C1194   1.488       .  S
N842        C843   1.353       .  A
C843        N844   1.350       .  A
C843       C1183   1.463       .  S
C845        N846   1.360       .  A
C845        N850   1.366       .  A
C845       C1127   1.492       .  S
N846        C847   1.354       .  A
C847        N848   1.356       .  A
C847       C1138   1.495       .  S
N848        C849   1.361       .  A
C849        N850   1.365       .  A
C849       C1152   1.499       .  S
C851        N852   1.359       .  A
C851        N856   1.365       .  A
C851       C1082   1.488       .  S
N852        C853   1.354       .  A
C853        N854   1.353       .  A
C853       C1110   1.465       .  S
N854        C855   1.354       .  A
C855        N856   1.361       .  A
C855       C1096   1.488       .  S
C857       C1113   1.569       .  S
C857       C1239   1.573       .  S
C858       C1515   1.576       .  S
C858       C1557   1.571   1_545  S
C858       C1180   1.564       .  S
C858       C1225   1.591       .  S
O859       Ni867   1.909   1_554  S
O859        C869   1.281       .  A
O860       Ni867   1.909       .  S
O860        C870   1.279       .  A
O861       Ni867   1.925   1_554  S
O861        C871   1.283       .  A
O862       Ni867   1.921       .  S
O862        C872   1.282       .  A
O863       Ni868   1.919       .  S
O863        C872   1.282       .  A
O864       Ni868   1.923   1_554  S
O864        C871   1.282       .  A
O865       Ni868   1.914       .  S
O865        C870   1.282       .  A
O866       Ni868   1.922   1_554  S
O866        C869   1.282       .  A
Ni867      Ni868   2.383       .  S
C869       C1068   1.488       .  S
C870       C1124   1.481       .  S
C871       C1054   1.490       .  S
C872       C1211   1.491       .  S
O873      Ni1297   1.923       .  S
O873       C1299   1.283       .  A
O876      Ni1297   1.918       .  S
O876       C1302   1.281       .  A
O877       Ni882   1.908       .  S
O877        C886   1.281   1_545  A
O878       Ni882   1.908       .  S
O878        C885   1.280   1_655  A
O879       Ni882   1.908       .  S
O879        C884   1.281   1_655  A
O880       Ni882   1.909       .  S
O880        C883   1.279   1_545  A
Ni881      O1289   1.923   1_545  S
Ni881      O1292   1.918   1_545  S
Ni881      Ni882   2.383       .  S
C883       C1501   1.486       .  S
C883       O1289   1.283       .  A
C886       C1456   1.484       .  S
C886       O1292   1.281       .  A
C887        N888   1.362       .  A
C887        N892   1.358       .  A
C887       C1071   1.493       .  S
N888        C889   1.358       .  A
C889        N890   1.357       .  A
C889        C998   1.472       .  S
N890        C891   1.358       .  A
C891        N892   1.357       .  A
C891       C1012   1.494       .  S
C893        N894   1.361       .  A
C893        N898   1.364       .  A
C893       C1026   1.494       .  S
N894        C895   1.356       .  A
C895        N896   1.357       .  A
C895        C987   1.493       .  S
N896        C897   1.362       .  A
C897        N898   1.362       .  A
C897        C970   1.497       .  S
C899        N900   1.363       .  A
C899        N904   1.364       .  A
C899       C1057   1.491       .  S
N900        C901   1.359       .  A
C901        N902   1.353       .  A
C901        C956   1.474       .  S
N902        C903   1.359       .  A
C903        N904   1.361       .  A
C903        C942   1.485       .  S
C905        N906   1.363       .  A
C905        N910   1.359       .  A
C905       C1043   1.490       .  S
N906        C907   1.359       .  A
C907        N908   1.360       .  A
C907        C931   1.486       .  S
N908        C909   1.358       .  A
C909        N910   1.355       .  A
C909        C914   1.483       .  S
C911        C928   1.583       .  S
C911       C1015   1.568       .  S
C912       C1333   1.568       .  S
C912       C1361   1.582       .  S
C912        C984   1.574       .  S
C912       C1001   1.578       .  S
C913        C914   1.401       .  A
C913        C918   1.406       .  A
C913        H920   1.084       .  S
C914        C915   1.403       .  A
C915        C916   1.396       .  A
C915        N922   1.429       .  S
C916        C917   1.419       .  A
C916        H921   1.076       .  S
C917       C1328   1.568       .  S
C917        C918   1.434       .  A
C918       N1335   1.433       .  S
N919       C1334   1.433       .  S
N919        O923   1.262       .  A
N919        O924   1.261       .  A
N922        O926   1.262       .  A
N922        O925   1.262       .  A
C927        C928   1.422       .  A
C927        C932   1.405       .  A
C927        H934   1.083       .  S
C928        C929   1.441       .  A
C929        C930   1.401       .  A
C929        N936   1.429       .  S
C930        C931   1.394       .  A
C930        H935   1.084       .  S
C931        C932   1.406       .  A
C932        N933   1.429       .  S
N933        O937   1.262       .  A
N933        O938   1.262       .  A
N936        O940   1.261       .  A
N936        O939   1.263       .  A
C941        C942   1.395       .  A
C941        C946   1.396       .  A
C941        H948   1.084       .  S
C942        C943   1.406       .  A
C943        C944   1.406       .  A
C943        N950   1.428       .  S
C944        C945   1.421       .  A
C944       H1365   1.079       .  S
C945       C1328   1.582       .  S
C945        C946   1.432       .  A
C946        N947   1.427       .  S
N947        O951   1.262       .  A
N947        O952   1.263       .  A
H949       C1360   1.079       .  S
N950        O954   1.261       .  A
N950        O953   1.262       .  A
C955        C956   1.398       .  A
C956        C957   1.398       .  A
C957        C958   1.395       .  A
C957        N964   1.430       .  S
C958        C959   1.421       .  A
C958        H963   1.077       .  S
C960        N961   1.432       .  S
N961        O965   1.262       .  A
N961        O966   1.259       .  A
N964        O968   1.262       .  A
N964        O967   1.262       .  A
C969        C970   1.398       .  A
C969        C974   1.395       .  A
C969        H976   1.081       .  S
C970        C971   1.414       .  A
C972        H977   1.078       .  S
C973        C974   1.432       .  A
C974        N975   1.429       .  S
N975        O979   1.262       .  A
N975        O980   1.262       .  A
N978        O982   1.263       .  A
N978        O981   1.262   1_655  A
C983        C984   1.419       .  A
C983        C988   1.395       .  A
C983        H990   1.084       .  S
C984        C985   1.439       .  A
C985        C986   1.411       .  A
C985        N992   1.436       .  S
C986        C987   1.404       .  A
C986        H991   1.084       .  S
C987        C988   1.406       .  A
C988        N989   1.429       .  S
N989        O993   1.262       .  A
N989        O994   1.262       .  A
N992        O996   1.262       .  A
N992        O995   1.260       .  A
C997        C998   1.395       .  A
C997       C1002   1.405       .  A
C997       H1004   1.084       .  S
C998        C999   1.400       .  A
C999       C1000   1.398       .  A
C999       N1006   1.430       .  S
C1000      C1001   1.422       .  A
C1000      H1005   1.078       .  S
C1001      C1002   1.435       .  A
C1002      N1003   1.431       .  S
N1003      O1007   1.262   1_545  A
N1003      O1008   1.262       .  A
N1006      O1010   1.261       .  A
N1006      O1009   1.262       .  A
C1011      C1012   1.406       .  A
C1011      C1016   1.409       .  A
C1011      H1018   1.082       .  S
C1012      C1013   1.406       .  A
C1013      C1014   1.392       .  A
C1013      N1020   1.429       .  S
C1014      C1015   1.420       .  A
C1014      H1019   1.083       .  S
C1015      C1016   1.436       .  A
C1016      N1017   1.436       .  S
N1017      O1021   1.263       .  A
N1017      O1022   1.261       .  A
N1020      O1024   1.261       .  A
N1020      O1023   1.262       .  A
C1025      C1026   1.411       .  A
C1025      C1030   1.402       .  A
C1025      H1032   1.083       .  S
C1026      C1027   1.416       .  A
C1027      C1028   1.398       .  A
C1027      N1034   1.428       .  S
C1028      C1029   1.404       .  A
C1029      C1030   1.411       .  A
C1030      N1031   1.429       .  S
N1031      O1035   1.262       .  A
N1031      O1036   1.262       .  A
N1034      O1038   1.262       .  A
C1039      C1456   1.404   1_545  A
C1039      C1460   1.397   1_545  A
C1039      H1046   1.084       .  S
C1040      C1302   1.484       .  S
C1040      C1455   1.404       .  A
C1040      C1041   1.412       .  A
C1041      C1042   1.401       .  A
C1041      N1048   1.429       .  S
C1042      C1043   1.407       .  A
C1042      H1047   1.083       .  S
C1043      C1044   1.417       .  A
C1044      C1455   1.397       .  A
C1044      N1461   1.429       .  S
N1045      C1460   1.429   1_545  S
N1045      O1049   1.262       .  A
N1045      O1466   1.262       .  A
N1048      O1052   1.262       .  A
N1048      O1051   1.262       .  A
O1050      N1461   1.262       .  A
C1053      C1054   1.405       .  A
C1053      C1058   1.404       .  A
C1053      H1060   1.084       .  S
C1054      C1055   1.413       .  A
C1055      C1056   1.404       .  A
C1055      N1062   1.429       .  S
C1056      C1057   1.406       .  A
C1056      H1061   1.084       .  S
C1057      C1058   1.416       .  A
C1058      N1059   1.431       .  S
N1059      O1063   1.262       .  A
N1059      O1064   1.262       .  A
N1062      O1066   1.262       .  A
N1062      O1065   1.262       .  A
C1067      C1068   1.404       .  A
C1067      C1072   1.397       .  A
C1067      H1074   1.084       .  S
C1068      C1069   1.413       .  A
C1069      C1070   1.402       .  A
C1069      N1076   1.429       .  S
C1070      C1071   1.408       .  A
C1070      H1075   1.083       .  S
C1071      C1072   1.418       .  A
C1072      N1073   1.429       .  S
N1073      O1077   1.262       .  A
N1073      O1078   1.262       .  A
N1076      O1080   1.262       .  A
N1076      O1079   1.262       .  A
C1081      C1082   1.404       .  A
C1081      C1502   1.400       .  A
C1081      H1088   1.084       .  S
C1082      C1083   1.418       .  A
C1083      C1084   1.400       .  A
C1083      N1090   1.430       .  S
C1084      C1085   1.403       .  A
C1084      H1089   1.084       .  S
C1085      C1299   1.486       .  S
C1085      C1502   1.414       .  A
C1086      C1497   1.400       .  A
C1086      C1501   1.414       .  A
C1086      N1087   1.429   1_565  S
N1087      O1091   1.262   1_545  A
N1087      O1092   1.262       .  A
N1090      O1094   1.262       .  A
N1090      O1093   1.262       .  A
C1095      C1096   1.400       .  A
C1095      C1516   1.409       .  A
C1095      H1102   1.084       .  S
C1096      C1097   1.409       .  A
C1097      C1098   1.393       .  A
C1097      N1104   1.430       .  S
C1098      C1099   1.417       .  A
C1098      H1103   1.084       .  S
C1099      C1274   1.576       .  S
C1099      C1516   1.439       .  A
C1100      C1511   1.409   1_545  A
C1100      C1515   1.439       .  A
C1100      N1101   1.431       .  S
N1101      O1105   1.262       .  A
N1101      O1106   1.261       .  A
N1104      O1108   1.262       .  A
N1104      O1107   1.262       .  A
C1109      C1110   1.391       .  A
C1109      C1114   1.396       .  A
C1109      H1116   1.085       .  S
C1110      C1111   1.397       .  A
C1111      C1112   1.397       .  A
C1111      N1118   1.429       .  S
C1112      C1113   1.417       .  A
C1112      H1117   1.077       .  S
C1113      C1114   1.441       .  A
C1114      N1115   1.434       .  S
N1115      O1119   1.262       .  A
N1115      O1120   1.262       .  A
N1118      O1122   1.262       .  A
N1118      O1121   1.262       .  A
C1123      C1124   1.402       .  A
C1123      C1128   1.402       .  A
C1123      H1130   1.084       .  S
C1124      C1125   1.412       .  A
C1125      C1126   1.397       .  A
C1125      N1132   1.430       .  S
C1126      C1127   1.407       .  A
C1126      H1131   1.082       .  S
C1127      C1128   1.415       .  A
C1128      N1129   1.428       .  S
N1129      O1133   1.263       .  A
N1129      O1134   1.262       .  A
N1132      O1136   1.262       .  A
N1132      O1135   1.262       .  A
C1137      C1138   1.401       .  A
C1137      C1142   1.402       .  A
C1137      H1144   1.084       .  S
C1138      C1139   1.412       .  A
C1139      C1140   1.402       .  A
C1139      N1146   1.429       .  S
C1140      C1141   1.415       .  A
C1140      H1561   1.078       .  S
C1141      C1274   1.571       .  S
C1141      C1142   1.432       .  A
C1142      N1143   1.431       .  S
N1143      O1147   1.261       .  A
N1143      O1564   1.262       .  A
H1145      C1556   1.078   1_545  S
N1146      O1150   1.262       .  A
N1146      O1149   1.262       .  A
O1148      N1559   1.262       .  A
C1151      C1152   1.403       .  A
C1151      C1156   1.398       .  A
C1151      H1158   1.083       .  S
C1152      C1153   1.412       .  A
C1153      N1160   1.424       .  S
C1154      H1159   1.076       .  S
C1155      C1156   1.431       .  A
C1156      N1157   1.433       .  S
N1157      O1161   1.262       .  A
N1157      O1162   1.262       .  A
C1165      C1166   1.410       .  A
C1165      C1170   1.398       .  A
C1165      H1172   1.083       .  S
C1166      C1167   1.413       .  A
C1167      C1168   1.399       .  A
C1167      N1174   1.427       .  S
C1168      C1169   1.405       .  A
C1169      C1170   1.411       .  A
C1170      N1171   1.429       .  S
N1171      O1175   1.262       .  A
N1171      O1176   1.262       .  A
N1174      O1178   1.262       .  A
N1174      O1177   1.262       .  A
C1179      C1180   1.423       .  A
C1179      C1184   1.396       .  A
C1179      H1186   1.083       .  S
C1180      C1181   1.442       .  A
C1181      C1182   1.402       .  A
C1181      N1188   1.436       .  S
C1182      C1183   1.392       .  A
C1182      H1187   1.085       .  S
C1183      C1184   1.394       .  A
C1184      N1185   1.429       .  S
N1185      O1189   1.262       .  A
N1185      O1190   1.262       .  A
N1188      O1192   1.262       .  A
N1188      O1191   1.260       .  A
C1193      C1194   1.401       .  A
C1193      C1198   1.396       .  A
C1193      H1200   1.084       .  S
C1194      C1195   1.410       .  A
C1195      C1196   1.404       .  A
C1195      N1202   1.433       .  S
C1196      C1197   1.416       .  A
C1197      C1198   1.429       .  A
C1198      N1199   1.433       .  S
N1199      O1203   1.262       .  A
N1199      O1204   1.262       .  A
N1202      O1206   1.262       .  A
N1202      O1205   1.263       .  A
C1207      C1208   1.407       .  A
C1207      C1212   1.401       .  A
C1207      H1214   1.083       .  S
C1208      C1209   1.414       .  A
C1209      C1210   1.404       .  A
C1209      N1216   1.430       .  S
C1210      C1211   1.408       .  A
C1210      H1215   1.084       .  S
C1211      C1212   1.413       .  A
C1212      N1213   1.429       .  S
N1213      O1217   1.262       .  A
N1213      O1218   1.262       .  A
N1216      O1220   1.262       .  A
N1216      O1219   1.262       .  A
C1221      C1222   1.396       .  A
C1221      C1226   1.402       .  A
C1221      H1228   1.084       .  S
C1222      C1223   1.409       .  A
C1223      C1224   1.402       .  A
C1223      N1230   1.429       .  S
C1224      C1225   1.423       .  A
C1224      H1229   1.079       .  S
C1225      C1226   1.433       .  A
C1226      N1227   1.426       .  S
N1227      O1231   1.262       .  A
N1227      O1232   1.262       .  A
N1230      O1234   1.262       .  A
N1230      O1233   1.262       .  A
C1235      C1236   1.399       .  A
C1235      C1240   1.402       .  A
C1235      H1242   1.088       .  S
C1236      C1237   1.409       .  A
C1237      C1238   1.395       .  A
C1237      N1244   1.429       .  S
C1238      C1239   1.410       .  A
C1238      H1243   1.102       .  S
C1239      C1240   1.441       .  A
C1240      N1241   1.434       .  S
N1241      O1245   1.262       .  A
N1241      O1246   1.262       .  A
N1244      O1248   1.262       .  A
N1244      O1247   1.262       .  A
C1249      N1250   1.362       .  A
C1249      N1254   1.358       .  A
C1249      C1624   1.492       .  S
N1250      C1251   1.363       .  A
C1251      N1252   1.359       .  A
C1251      C1638   1.492       .  S
N1252      C1253   1.360       .  A
C1253      N1254   1.356       .  A
C1253      C1652   1.492       .  S
C1255      N1256   1.364       .  A
C1255      N1260   1.357       .  A
C1255      C1582   1.491       .  S
N1256      C1257   1.363       .  A
C1257      N1258   1.360       .  A
C1257      C1610   1.488       .  S
N1258      C1259   1.353       .  A
C1259      N1260   1.350       .  A
C1259      C1599   1.463       .  S
C1261      N1262   1.360       .  A
C1261      N1266   1.366       .  A
C1261      C1543   1.492       .  S
N1262      C1263   1.354       .  A
C1263      N1264   1.356       .  A
C1263      C1554   1.495       .  S
N1264      C1265   1.361       .  A
C1265      N1266   1.365       .  A
C1265      C1568   1.499       .  S
C1267      N1268   1.359       .  A
C1267      N1272   1.365       .  A
C1267      C1498   1.488       .  S
N1268      C1269   1.354       .  A
C1269      N1270   1.353       .  A
C1269      C1526   1.465       .  S
N1270      C1271   1.354       .  A
C1271      N1272   1.361       .  A
C1271      C1512   1.488       .  S
C1273      C1529   1.569       .  S
C1273      C1655   1.573       .  S
C1274      C1596   1.564       .  S
C1274      C1641   1.591       .  S
O1275     Ni1283   1.909   1_554  S
O1275      C1285   1.281       .  A
O1276     Ni1283   1.909       .  S
O1276      C1286   1.279       .  A
O1277     Ni1283   1.925   1_554  S
O1277      C1287   1.283       .  A
O1278     Ni1283   1.922       .  S
O1278      C1288   1.282       .  A
O1279     Ni1284   1.919       .  S
O1279      C1288   1.282       .  A
O1280     Ni1284   1.923   1_554  S
O1280      C1287   1.282       .  A
O1281     Ni1284   1.914       .  S
O1281      C1286   1.282       .  A
O1282     Ni1284   1.922   1_554  S
O1282      C1285   1.282       .  A
Ni1283    Ni1284   2.383       .  S
C1285      C1484   1.488       .  S
C1286      C1540   1.481       .  S
C1287      C1470   1.491       .  S
C1288      C1627   1.491       .  S
O1293     Ni1298   1.908       .  S
O1293      C1302   1.281       .  A
O1294     Ni1298   1.908       .  S
O1294      C1301   1.280   1_655  A
O1295     Ni1298   1.908       .  S
O1295      C1300   1.281   1_655  A
O1296     Ni1298   1.909       .  S
O1296      C1299   1.279       .  A
Ni1297    Ni1298   2.383       .  S
C1303      N1304   1.362       .  A
C1303      N1308   1.358       .  A
C1303      C1487   1.493       .  S
N1304      C1305   1.358       .  A
C1305      N1306   1.357       .  A
C1305      C1414   1.472       .  S
N1306      C1307   1.358       .  A
C1307      N1308   1.358       .  A
C1307      C1428   1.494       .  S
C1309      N1310   1.360       .  A
C1309      N1314   1.364       .  A
C1309      C1442   1.494       .  S
N1310      C1311   1.356       .  A
C1311      N1312   1.357       .  A
C1311      C1403   1.493       .  S
N1312      C1313   1.362       .  A
C1313      N1314   1.362       .  A
C1313      C1386   1.497       .  S
C1315      N1316   1.363       .  A
C1315      N1320   1.364       .  A
C1315      C1473   1.491       .  S
N1316      C1317   1.359       .  A
C1317      N1318   1.353       .  A
C1317      C1372   1.474       .  S
N1318      C1319   1.359       .  A
C1319      N1320   1.361       .  A
C1319      C1358   1.485       .  S
C1321      N1322   1.363       .  A
C1321      N1326   1.359       .  A
C1321      C1459   1.490       .  S
N1322      C1323   1.359       .  A
C1323      N1324   1.360       .  A
C1323      C1347   1.486       .  S
N1324      C1325   1.358       .  A
C1325      N1326   1.355       .  A
C1325      C1330   1.483       .  S
C1327      C1344   1.583       .  S
C1327      C1431   1.568       .  S
C1328      C1400   1.574       .  S
C1328      C1417   1.578       .  S
C1329      C1330   1.401   1_545  A
C1329      C1334   1.406       .  A
C1329      H1336   1.084       .  S
C1330      C1331   1.403       .  A
C1331      C1332   1.396       .  A
C1331      N1338   1.429       .  S
C1332      C1333   1.419   1_565  A
C1332      H1337   1.076       .  S
C1333      C1334   1.434       .  A
N1335      O1339   1.262       .  A
N1335      O1340   1.261       .  A
N1338      O1342   1.262       .  A
N1338      O1341   1.262       .  A
C1343      C1344   1.422       .  A
C1343      C1348   1.405       .  A
C1343      H1350   1.083       .  S
C1344      C1345   1.441       .  A
C1345      C1346   1.401       .  A
C1345      N1352   1.429       .  S
C1346      C1347   1.394       .  A
C1346      H1351   1.084       .  S
C1347      C1348   1.406       .  A
C1348      N1349   1.429       .  S
N1349      O1353   1.262       .  A
N1349      O1354   1.262       .  A
N1352      O1356   1.261       .  A
N1352      O1355   1.263       .  A
C1357      C1358   1.395       .  A
C1357      C1362   1.396       .  A
C1357      H1364   1.084       .  S
C1358      C1359   1.406       .  A
C1359      C1360   1.406   1_565  A
C1359      N1366   1.428       .  S
C1360      C1361   1.421       .  A
C1361      C1362   1.432   1_545  A
C1362      N1363   1.427       .  S
N1363      O1367   1.262       .  A
N1363      O1368   1.263       .  A
N1366      O1370   1.261       .  A
N1366      O1369   1.262   1_565  A
C1371      C1372   1.398       .  A
C1372      C1373   1.398       .  A
C1373      C1374   1.395       .  A
C1373      N1380   1.430       .  S
C1374      C1375   1.421       .  A
C1374      H1379   1.077       .  S
C1376      N1377   1.432       .  S
N1377      O1381   1.262       .  A
N1377      O1382   1.259       .  A
N1380      O1384   1.262       .  A
N1380      O1383   1.262       .  A
C1385      C1386   1.398       .  A
C1385      C1390   1.395       .  A
C1385      H1392   1.081       .  S
C1386      C1387   1.414       .  A
C1388      H1393   1.078       .  S
C1389      C1390   1.432       .  A
C1390      N1391   1.429       .  S
N1391      O1395   1.262       .  A
N1391      O1396   1.262       .  A
N1394      O1398   1.263       .  A
N1394      O1397   1.262   1_655  A
C1399      C1400   1.419       .  A
C1399      C1404   1.394       .  A
C1399      H1406   1.084       .  S
C1400      C1401   1.439       .  A
C1401      C1402   1.411       .  A
C1401      N1408   1.436       .  S
C1402      C1403   1.404       .  A
C1402      H1407   1.084       .  S
C1403      C1404   1.406       .  A
C1404      N1405   1.429       .  S
N1405      O1409   1.262       .  A
N1405      O1410   1.262       .  A
N1408      O1412   1.262       .  A
N1408      O1411   1.260       .  A
C1413      C1414   1.395       .  A
C1413      C1418   1.405       .  A
C1413      H1420   1.084       .  S
C1414      C1415   1.400       .  A
C1415      C1416   1.398       .  A
C1415      N1422   1.430       .  S
C1416      C1417   1.422       .  A
C1416      H1421   1.078       .  S
C1417      C1418   1.435       .  A
C1418      N1419   1.431       .  S
N1419      O1423   1.262       .  A
N1419      O1424   1.262       .  A
N1422      O1426   1.261       .  A
N1422      O1425   1.262       .  A
C1427      C1428   1.406       .  A
C1427      C1432   1.409       .  A
C1427      H1434   1.082       .  S
C1428      C1429   1.406       .  A
C1429      C1430   1.392       .  A
C1429      N1436   1.429       .  S
C1430      C1431   1.420       .  A
C1430      H1435   1.083       .  S
C1431      C1432   1.436       .  A
C1432      N1433   1.436       .  S
N1433      O1437   1.263       .  A
N1433      O1438   1.261       .  A
N1436      O1440   1.261       .  A
N1436      O1439   1.262       .  A
C1441      C1442   1.411       .  A
C1441      C1446   1.402       .  A
C1441      H1448   1.083       .  S
C1442      C1443   1.416       .  A
C1443      C1444   1.398       .  A
C1443      N1450   1.428       .  S
C1444      C1445   1.404       .  A
C1445      C1446   1.411       .  A
C1446      N1447   1.429       .  S
N1447      O1451   1.262       .  A
N1447      O1452   1.262       .  A
N1450      O1454   1.262       .  A
C1455      H1462   1.084       .  S
C1456      C1457   1.412       .  A
C1457      C1458   1.401       .  A
C1457      N1464   1.429       .  S
C1458      C1459   1.407       .  A
C1458      H1463   1.083       .  S
C1459      C1460   1.417       .  A
N1461      O1465   1.262       .  A
N1464      O1468   1.262       .  A
N1464      O1467   1.262       .  A
C1469      C1470   1.405       .  A
C1469      C1474   1.404       .  A
C1469      H1476   1.084       .  S
C1470      C1471   1.413       .  A
C1471      C1472   1.404       .  A
C1471      N1478   1.429       .  S
C1472      C1473   1.406       .  A
C1472      H1477   1.084       .  S
C1473      C1474   1.416       .  A
C1474      N1475   1.431       .  S
N1475      O1479   1.262       .  A
N1475      O1480   1.262       .  A
N1478      O1482   1.262       .  A
N1478      O1481   1.262       .  A
C1483      C1484   1.404       .  A
C1483      C1488   1.397       .  A
C1483      H1490   1.084       .  S
C1484      C1485   1.413       .  A
C1485      C1486   1.402       .  A
C1485      N1492   1.429       .  S
C1486      C1487   1.408       .  A
C1486      H1491   1.083       .  S
C1487      C1488   1.418       .  A
C1488      N1489   1.429       .  S
N1489      O1493   1.262       .  A
N1489      O1494   1.262       .  A
N1492      O1496   1.262       .  A
N1492      O1495   1.262       .  A
C1497      C1498   1.404       .  A
C1497      H1504   1.084       .  S
C1498      C1499   1.418       .  A
C1499      C1500   1.400       .  A
C1499      N1506   1.430       .  S
C1500      C1501   1.403       .  A
C1500      H1505   1.084       .  S
C1502      N1503   1.429       .  S
N1503      O1507   1.262       .  A
N1503      O1508   1.262       .  A
N1506      O1510   1.262       .  A
N1506      O1509   1.262       .  A
C1511      C1512   1.400       .  A
C1511      H1518   1.084       .  S
C1512      C1513   1.409       .  A
C1513      C1514   1.393       .  A
C1513      N1520   1.430       .  S
C1514      C1515   1.417   1_565  A
C1514      H1519   1.084       .  S
C1516      N1517   1.431       .  S
N1517      O1521   1.262       .  A
N1517      O1522   1.261       .  A
N1520      O1524   1.262       .  A
N1520      O1523   1.262       .  A
C1525      C1526   1.391       .  A
C1525      C1530   1.396       .  A
C1525      H1532   1.085       .  S
C1526      C1527   1.397       .  A
C1527      C1528   1.397       .  A
C1527      N1534   1.429       .  S
C1528      C1529   1.417       .  A
C1528      H1533   1.077       .  S
C1529      C1530   1.441       .  A
C1530      N1531   1.434       .  S
N1531      O1535   1.262       .  A
N1531      O1536   1.262       .  A
N1534      O1538   1.262       .  A
N1534      O1537   1.262       .  A
C1539      C1540   1.402       .  A
C1539      C1544   1.402       .  A
C1539      H1546   1.084       .  S
C1540      C1541   1.412       .  A
C1541      C1542   1.397       .  A
C1541      N1548   1.430       .  S
C1542      C1543   1.407       .  A
C1542      H1547   1.083       .  S
C1543      C1544   1.415       .  A
C1544      N1545   1.428       .  S
N1545      O1549   1.263       .  A
N1545      O1550   1.262       .  A
N1548      O1552   1.262       .  A
N1548      O1551   1.262       .  A
C1553      C1554   1.401       .  A
C1553      C1558   1.401       .  A
C1553      H1560   1.084       .  S
C1554      C1555   1.412       .  A
C1555      C1556   1.402       .  A
C1555      N1562   1.429       .  S
C1556      C1557   1.415       .  A
C1557      C1558   1.432       .  A
C1558      N1559   1.431       .  S
N1559      O1563   1.261       .  A
N1562      O1566   1.262       .  A
N1562      O1565   1.262       .  A
C1567      C1568   1.403       .  A
C1567      C1572   1.398       .  A
C1567      H1574   1.083       .  S
C1568      C1569   1.412       .  A
C1569      N1576   1.424       .  S
C1570      H1575   1.076       .  S
C1571      C1572   1.431       .  A
C1572      N1573   1.433       .  S
N1573      O1577   1.262       .  A
N1573      O1578   1.262       .  A
C1581      C1582   1.410       .  A
C1581      C1586   1.398       .  A
C1581      H1588   1.083       .  S
C1582      C1583   1.413       .  A
C1583      C1584   1.399       .  A
C1583      N1590   1.427       .  S
C1584      C1585   1.405       .  A
C1585      C1586   1.411       .  A
C1586      N1587   1.429       .  S
N1587      O1591   1.262       .  A
N1587      O1592   1.262       .  A
N1590      O1594   1.262       .  A
N1590      O1593   1.262       .  A
C1595      C1596   1.423       .  A
C1595      C1600   1.396       .  A
C1595      H1602   1.083       .  S
C1596      C1597   1.442       .  A
C1597      C1598   1.402       .  A
C1597      N1604   1.436       .  S
C1598      C1599   1.392       .  A
C1598      H1603   1.085       .  S
C1599      C1600   1.394       .  A
C1600      N1601   1.429       .  S
N1601      O1605   1.262       .  A
N1601      O1606   1.262       .  A
N1604      O1608   1.262       .  A
N1604      O1607   1.260       .  A
C1609      C1610   1.401       .  A
C1609      C1614   1.396       .  A
C1609      H1616   1.084       .  S
C1610      C1611   1.410       .  A
C1611      C1612   1.404       .  A
C1611      N1618   1.433       .  S
C1612      C1613   1.416       .  A
C1613      C1614   1.429       .  A
C1614      N1615   1.433       .  S
N1615      O1619   1.262       .  A
N1615      O1620   1.262       .  A
N1618      O1622   1.262       .  A
N1618      O1621   1.263       .  A
C1623      C1624   1.407       .  A
C1623      C1628   1.401       .  A
C1623      H1630   1.083       .  S
C1624      C1625   1.414       .  A
C1625      C1626   1.404       .  A
C1625      N1632   1.430       .  S
C1626      C1627   1.408       .  A
C1626      H1631   1.084       .  S
C1627      C1628   1.413       .  A
C1628      N1629   1.429       .  S
N1629      O1633   1.262       .  A
N1629      O1634   1.262       .  A
N1632      O1636   1.262       .  A
N1632      O1635   1.262       .  A
C1637      C1638   1.396       .  A
C1637      C1642   1.402       .  A
C1637      H1644   1.084       .  S
C1638      C1639   1.409       .  A
C1639      C1640   1.402       .  A
C1639      N1646   1.429       .  S
C1640      C1641   1.423       .  A
C1640      H1645   1.079       .  S
C1641      C1642   1.433       .  A
C1642      N1643   1.426       .  S
N1643      O1647   1.262       .  A
N1643      O1648   1.262       .  A
N1646      O1650   1.262       .  A
N1646      O1649   1.262       .  A
C1651      C1652   1.399       .  A
C1651      C1656   1.402       .  A
C1651      H1658   1.088       .  S
C1652      C1653   1.409       .  A
C1653      C1654   1.395       .  A
C1653      N1660   1.429       .  S
C1654      C1655   1.410       .  A
C1654      H1659   1.102       .  S
C1655      C1656   1.441       .  A
C1656      N1657   1.434       .  S
N1657      O1661   1.262       .  A
N1657      O1662   1.262       .  A
N1660      O1664   1.262       .  A
N1660      O1663   1.262       .  A
