geometry optimzed in LAMMPS
_audit_creation_date              2020-11-30 
_audit_creation_method            'lammps2cif' 
_symmetry_space_group_name_H-M    'P1' 
_symmetry_Int_Tables_number       1 
_symmetry_cell_setting            triclinic 
loop_ 
_symmetry_equiv_pos_as_xyz 
  x,y,z 
_cell_length_a                    41.78977631 
_cell_length_b                    41.78846473133317 
_cell_length_c                    24.327556458604924 
_cell_angle_alpha                 90.0021502509432 
_cell_angle_beta                  90.00063052884566 
_cell_angle_gamma                 90.00045767010884 
loop_ 
_atom_site_label 
_atom_site_type_symbol 
_atom_site_fract_x 
_atom_site_fract_y 
_atom_site_fract_z 
_atom_site_charge 
C1          C  0.18436065  0.05938422  0.31247329     0.79000
N2          N  0.16231025  0.05838624  0.35338292    -0.79300
C3          C  0.13929568  0.03547531  0.35340386     0.81400
N4          N  0.13836242  0.01338401  0.31246513    -0.79300
C5          C  0.16045424  0.01431899  0.27153037     0.81500
N6          N  0.18336388  0.03733463  0.27155955    -0.81000
O7          O  0.22020349  0.09485416  0.26778572    -0.73000
O8          O  0.28408721  0.15948239  0.26778368    -0.73200
O9          O  0.28408530  0.09485233  0.26778654    -0.73100
O10         O  0.22020495  0.15948441  0.26778429    -0.73100
O11         O  0.21983313  0.15911408  0.35716553    -0.73100
O12         O  0.28445832  0.09522760  0.35716733    -0.73100
O13         O  0.28446153  0.15911214  0.35716492    -0.73000
O14         O  0.21982998  0.09522959  0.35716650    -0.73200
V15         V  0.25214519  0.12716833  0.26952712     1.35200
V16         V  0.25214568  0.12717080  0.35542492     1.35200
C17         C  0.20912366  0.08414882  0.31247574     0.76200
C18         C  0.29516775  0.17019004  0.31247333     0.76300
C19         C  0.29516441  0.08414651  0.31247731     0.76200
C20         C  0.20912634  0.17019254  0.31247492     0.76100
C21         C  0.31992773  0.05938201  0.31247945     0.79000
N22         N  0.32092648  0.03733204  0.27156641    -0.79300
C23         C  0.34383681  0.01431723  0.27154138     0.81400
N24         N  0.36592693  0.01338356  0.31247922    -0.79300
C25         C  0.36499146  0.03547489  0.35341767     0.81500
N26         N  0.34197627  0.05838499  0.35339257    -0.81000
C27         C  0.18436262  0.19495621  0.31247595     0.79000
N28         N  0.16231318  0.19595300  0.35338723    -0.79300
C29         C  0.13929752  0.21886228  0.35341303     0.81400
N30         N  0.13836230  0.24095357  0.31247759    -0.79300
C31         C  0.16045333  0.24002023  0.27154147     0.81500
N32         N  0.18336427  0.21700608  0.27156578    -0.81000
C33         C  0.31993236  0.19495323  0.31247076     0.79000
N34         N  0.32092924  0.21700180  0.27155823    -0.79300
C35         C  0.34384086  0.24001545  0.27152860     0.81400
N36         N  0.36593426  0.24094960  0.31246159    -0.79300
C37         C  0.36500073  0.21885949  0.35339921     0.81500
N38         N  0.34198411  0.19595071  0.35337875    -0.81000
C39         C  0.18436476  0.44495354  0.18746427     0.79000
N40         N  0.16231643  0.44595067  0.14655087    -0.79300
C41         C  0.13930147  0.46886082  0.14652514     0.81400
N42         N  0.13836589  0.49095231  0.18746303    -0.79300
C43         C  0.16045575  0.49001847  0.22840132     0.81500
N44         N  0.18336594  0.46700365  0.22837700    -0.81000
O45         O  0.22020532  0.34485371  0.23216004    -0.73000
O46         O  0.28408971  0.40948175  0.23215663    -0.73200
O47         O  0.22020754  0.40948413  0.23215693    -0.73100
O48         O  0.28408764  0.34485146  0.23215829    -0.73100
O49         O  0.28445966  0.34522223  0.14277752    -0.73100
O50         O  0.21983379  0.40910782  0.14277573    -0.73100
O51         O  0.28446233  0.40910651  0.14277600    -0.73000
O52         O  0.21983125  0.34522339  0.14277889    -0.73200
V53         V  0.25214767  0.37716764  0.23041627     1.35200
V54         V  0.25214685  0.37716491  0.14451861     1.35200
C55         C  0.20912487  0.33414586  0.18747041     0.76200
C56         C  0.29516905  0.42018730  0.18746630     0.76300
C57         C  0.20912802  0.42018940  0.18746585     0.76200
C58         C  0.29516632  0.33414347  0.18746794     0.76100
C59         C  0.31993202  0.44495198  0.18746893     0.79000
N60         N  0.34198223  0.44595013  0.14655893    -0.79300
C61         C  0.36499683  0.46886108  0.14653852     0.81400
N62         N  0.36593014  0.49095226  0.18747742    -0.79300
C63         C  0.34383832  0.49001715  0.22841220     0.81500
N64         N  0.32092870  0.46700156  0.22838257    -0.81000
C65         C  0.18436010  0.30938304  0.18747357     0.79000
N66         N  0.16230843  0.30838582  0.14656547    -0.79300
C67         C  0.13929176  0.28547692  0.14654465     0.81400
N68         N  0.13835826  0.26338653  0.18748183    -0.79300
C69         C  0.16045169  0.26432048  0.22841488     0.81500
N70         N  0.18336332  0.28733434  0.22838580    -0.81000
C71         C  0.31993024  0.30937977  0.18746656     0.79000
N72         N  0.32092845  0.28732953  0.22837682    -0.79300
C73         C  0.34383937  0.26431546  0.22840127     0.81400
N74         N  0.36593064  0.26338251  0.18746555    -0.79300
C75         C  0.36499560  0.28547403  0.14653003     0.81500
N76         N  0.34197989  0.30838335  0.14655575    -0.81000
O77         O  0.03408714  0.40948278  0.01778263    -0.73000
O78         O  0.47020358  0.34485452  0.01778512    -0.73200
O79         O  0.47020510  0.40948472  0.01778442    -0.73100
O80         O  0.03408558  0.34485270  0.01778555    -0.73100
O81         O  0.03445883  0.34522822  0.10716631    -0.73100
O82         O  0.46983322  0.40911444  0.10716564    -0.73100
O83         O  0.46983043  0.34522996  0.10716640    -0.73000
O84         O  0.03446201  0.40911246  0.10716380    -0.73200
V85         V  0.00214526  0.37716871  0.01952622     1.35200
V86         V  0.00214611  0.37717119  0.10542408     1.35200
C87         C  0.04516798  0.42019038  0.06247227     0.76200
C88         C  0.45912393  0.33414917  0.06247569     0.76300
C89         C  0.45912659  0.42019299  0.06247533     0.76200
C90         C  0.04516492  0.33414709  0.06247620     0.76100
C91         C  0.06993263  0.44495346  0.06246983     0.79000
N92         N  0.07092943  0.46700227  0.02155746    -0.79300
C93         C  0.09384112  0.49001590  0.02152822     0.81400
N94         N  0.11593439  0.49094987  0.06246137    -0.79300
C95         C  0.11500098  0.46885940  0.10339859     0.83100
N96         N  0.09198440  0.44595056  0.10337781    -0.81000
C97         C  0.06992835  0.30938285  0.06247848     0.79000
N98         N  0.07092703  0.28733262  0.02156561    -0.79300
C99         C  0.09383709  0.26431763  0.02154165     0.81400
N100        N  0.11592696  0.26338395  0.06247985    -0.79300
C101        C  0.11499146  0.28547540  0.10341815     0.81500
N102        N  0.09197671  0.30838578  0.10339179    -0.81000
C103        C  0.43436292  0.44495683  0.06247584     0.79000
N104        N  0.43336463  0.46700676  0.02156610    -0.79300
C105        C  0.41045363  0.49002101  0.02154135     0.81400
N106        N  0.38836232  0.49095397  0.06247718    -0.79300
C107        C  0.38929757  0.46886265  0.10341247     0.81500
N108        N  0.41231326  0.44595327  0.10338691    -0.81000
C109        C  0.43436084  0.30938431  0.06247293     0.79000
N110        N  0.41231062  0.30838618  0.10338312    -0.79300
C111        C  0.38929607  0.28547525  0.10340418     0.81400
N112        N  0.38836276  0.26338418  0.06246561    -0.79300
C113        C  0.41045446  0.26431913  0.02153048     0.81500
N114        N  0.43336409  0.28733478  0.02155962    -0.81000
O115        O  0.03445988  0.09522261  0.39277649    -0.73000
O116        O  0.46983408  0.15910852  0.39277487    -0.73200
O117        O  0.03446251  0.15910671  0.39277592    -0.73100
O118        O  0.46983145  0.09522407  0.39277768    -0.73100
O119        O  0.47020529  0.09485411  0.48215837    -0.73100
O120        O  0.03408949  0.15948157  0.48215734    -0.73100
O121        O  0.47020753  0.15948414  0.48215607    -0.73000
O122        O  0.03408748  0.09485151  0.48215780    -0.73200
V123        V  0.00214707  0.12716549  0.39451781     1.35200
V124        V  0.00214748  0.12716780  0.48041588     1.35200
C125        C  0.04516627  0.08414366  0.43746689     0.76200
C126        C  0.45912824  0.17018980  0.43746489     0.76300
C127        C  0.04516905  0.17018717  0.43746681     0.76200
C128        C  0.45912506  0.08414622  0.43746869     0.76100
C129        C  0.06993240  0.19495183  0.43747015     0.79000
N130        N  0.07092903  0.21700142  0.47838364    -0.79300
C131        C  0.09383871  0.24001716  0.47841307     0.81400
N132        N  0.11593048  0.24095213  0.43747808    -0.79300
C133        C  0.11499721  0.21886105  0.39653936     0.81500
N134        N  0.09198274  0.19595010  0.39656020    -0.81000
C135        C  0.06993002  0.05937980  0.43746671     0.79000
N136        N  0.07092845  0.03733003  0.47837678    -0.79300
C137        C  0.09383943  0.01431591  0.47840153     0.81400
N138        N  0.11593051  0.01338276  0.43746544    -0.79300
C139        C  0.11499518  0.03547383  0.39652995     0.81500
N140        N  0.09197950  0.05838311  0.39655549    -0.81000
C141        C  0.43436060  0.05938304  0.43747179     0.79000
N142        N  0.41230874  0.05838552  0.39656371    -0.79300
C143        C  0.38929210  0.03547666  0.39654372     0.81400
N144        N  0.38835858  0.01338665  0.43748149    -0.79300
C145        C  0.41045215  0.01432084  0.47841440     0.81500
N146        N  0.43336383  0.03733461  0.47838445    -0.81000
C147        C  0.43436520  0.19495416  0.43746383     0.79000
N148        N  0.43336648  0.21700410  0.47837663    -0.79300
C149        C  0.41045611  0.24001877  0.47840199     0.81400
N150        N  0.38836588  0.24095235  0.43746381    -0.79300
C151        C  0.38930141  0.21886108  0.39652552     0.81500
N152        N  0.41231637  0.19595099  0.39655059    -0.81000
C153        C  0.18436023  0.05938419  0.81247375     0.79000
N154        N  0.16231010  0.05838595  0.85338318    -0.79300
C155        C  0.13929544  0.03547505  0.85340392     0.81400
N156        N  0.13836223  0.01338390  0.81246508    -0.79300
C157        C  0.16045390  0.01431898  0.77153055     0.81500
N158        N  0.18336366  0.03733462  0.77156001    -0.81000
O159        O  0.22020333  0.09485411  0.76778568    -0.73000
O160        O  0.28408712  0.15948232  0.76778401    -0.73200
O161        O  0.28408559  0.09485219  0.76778659    -0.73100
O162        O  0.22020491  0.15948440  0.76778485    -0.73100
O163        O  0.21983295  0.15911413  0.85716549    -0.73100
O164        O  0.28445854  0.09522746  0.85716780    -0.73100
O165        O  0.28446155  0.15911181  0.85716487    -0.73000
O166        O  0.21983002  0.09522960  0.85716685    -0.73200
V167        V  0.25214527  0.12716831  0.76952699     1.35200
V168        V  0.25214575  0.12717075  0.85542469     1.35200
C169        C  0.20912361  0.08414874  0.81247594     0.76200
C170        C  0.29516762  0.17018985  0.81247370     0.76300
C171        C  0.29516456  0.08414636  0.81247772     0.76200
C172        C  0.20912629  0.17019268  0.81247531     0.76100
C173        C  0.31992741  0.05938197  0.81247895     0.79000
N174        N  0.32092630  0.03733196  0.77156622    -0.79300
C175        C  0.34383678  0.01431735  0.77154107     0.81400
N176        N  0.36592691  0.01338362  0.81247938    -0.79300
C177        C  0.36499125  0.03547506  0.85341749     0.81500
N178        N  0.34197612  0.05838514  0.85339219    -0.81000
C179        C  0.18436263  0.19495642  0.81247624     0.79000
N180        N  0.16231312  0.19595300  0.85338715    -0.79300
C181        C  0.13929749  0.21886246  0.85341293     0.81400
N182        N  0.13836218  0.24095375  0.81247746    -0.79300
C183        C  0.16045327  0.24002053  0.77154158     0.81500
N184        N  0.18336417  0.21700611  0.77156598    -0.81000
C185        C  0.31993232  0.19495305  0.81247063     0.79000
N186        N  0.32092912  0.21700169  0.77155822    -0.79300
C187        C  0.34384097  0.24001553  0.77152839     0.81400
N188        N  0.36593435  0.24094971  0.81246146    -0.79300
C189        C  0.36500076  0.21885960  0.85339900     0.81500
N190        N  0.34198407  0.19595060  0.85337862    -0.81000
C191        C  0.18436479  0.44495365  0.68746446     0.79000
N192        N  0.16231638  0.44595068  0.64655089    -0.79300
C193        C  0.13930156  0.46886099  0.64652498     0.81400
N194        N  0.13836579  0.49095228  0.68746320    -0.79300
C195        C  0.16045574  0.49001857  0.72840162     0.81500
N196        N  0.18336600  0.46700377  0.72837717    -0.81000
O197        O  0.22020546  0.34485388  0.73215990    -0.73000
O198        O  0.28408983  0.40948169  0.73215745    -0.73200
O199        O  0.22020750  0.40948411  0.73215677    -0.73100
O200        O  0.28408767  0.34485138  0.73215815    -0.73100
O201        O  0.28445974  0.34522207  0.64277697    -0.73100
O202        O  0.21983368  0.40910786  0.64277564    -0.73100
O203        O  0.28446218  0.40910661  0.64277636    -0.73000
O204        O  0.21983112  0.34522352  0.64277875    -0.73200
V205        V  0.25214761  0.37716757  0.73041636     1.35200
V206        V  0.25214676  0.37716498  0.64451855     1.35200
C207        C  0.20912487  0.33414607  0.68747032     0.76200
C208        C  0.29516916  0.42018722  0.68746705     0.76300
C209        C  0.20912796  0.42018939  0.68746572     0.76200
C210        C  0.29516640  0.33414344  0.68746738     0.76100
C211        C  0.31993222  0.44495196  0.68746859     0.79000
N212        N  0.34198241  0.44595013  0.64655897    -0.79300
C213        C  0.36499688  0.46886115  0.64653833     0.81400
N214        N  0.36593011  0.49095212  0.68747761    -0.79300
C215        C  0.34383834  0.49001712  0.72841199     0.81500
N216        N  0.32092874  0.46700153  0.72838245    -0.81000
C217        C  0.18436011  0.30938305  0.68747363     0.79000
N218        N  0.16230833  0.30838586  0.64656559    -0.79300
C219        C  0.13929172  0.28547697  0.64654472     0.81400
N220        N  0.13835822  0.26338650  0.68748167    -0.79300
C221        C  0.16045158  0.26432053  0.72841499     0.81500
N222        N  0.18336333  0.28733426  0.72838556    -0.81000
C223        C  0.31993007  0.30937964  0.68746697     0.79000
N224        N  0.32092826  0.28732954  0.72837680    -0.79300
C225        C  0.34383938  0.26431546  0.72840149     0.81400
N226        N  0.36593065  0.26338253  0.68746554    -0.79300
C227        C  0.36499555  0.28547399  0.64653042     0.81500
N228        N  0.34197969  0.30838319  0.64655599    -0.81000
O229        O  0.03408740  0.40948286  0.51778268    -0.73000
O230        O  0.47020334  0.34485455  0.51778584    -0.73200
O231        O  0.47020498  0.40948476  0.51778442    -0.73100
O232        O  0.03408556  0.34485280  0.51778565    -0.73100
O233        O  0.03445887  0.34522821  0.60716644    -0.73100
O234        O  0.46983343  0.40911445  0.60716570    -0.73100
O235        O  0.46983035  0.34522999  0.60716652    -0.73000
O236        O  0.03446186  0.40911248  0.60716389    -0.73200
V237        V  0.00214533  0.37716883  0.51952616     1.35200
V238        V  0.00214607  0.37717132  0.60542397     1.35200
C239        C  0.04516804  0.42019038  0.56247256     0.76200
C240        C  0.45912380  0.33414914  0.56247600     0.76300
C241        C  0.45912655  0.42019294  0.56247528     0.76200
C242        C  0.04516494  0.33414720  0.56247645     0.76100
C243        C  0.06993280  0.44495347  0.56246961     0.79000
N244        N  0.07092939  0.46700220  0.52155764    -0.79300
C245        C  0.09384103  0.49001600  0.52152807     0.81400
N246        N  0.11593452  0.49094995  0.56246113    -0.79300
C247        C  0.11500115  0.46885968  0.60339833     0.83100
N248        N  0.09198461  0.44595075  0.60337779    -0.81000
C249        C  0.06992810  0.30938273  0.56247814     0.79000
N250        N  0.07092706  0.28733257  0.52156576    -0.79300
C251        C  0.09383725  0.26431761  0.52154166     0.81400
N252        N  0.11592710  0.26338398  0.56248032    -0.79300
C253        C  0.11499135  0.28547548  0.60341806     0.81500
N254        N  0.09197653  0.30838586  0.60339165    -0.81000
C255        C  0.43436280  0.44495683  0.56247629     0.79000
N256        N  0.43336467  0.46700674  0.52156606    -0.79300
C257        C  0.41045367  0.49002098  0.52154151     0.81400
N258        N  0.38836231  0.49095416  0.56247717    -0.79300
C259        C  0.38929724  0.46886277  0.60341254     0.81500
N260        N  0.41231311  0.44595352  0.60338727    -0.81000
C261        C  0.43436063  0.30938446  0.56247362     0.79000
N262        N  0.41231058  0.30838618  0.60338332    -0.79300
C263        C  0.38929596  0.28547515  0.60340442     0.81400
N264        N  0.38836253  0.26338399  0.56246574    -0.79300
C265        C  0.41045425  0.26431915  0.52153093     0.81500
N266        N  0.43336391  0.28733494  0.52156018    -0.81000
O267        O  0.03445999  0.09522225  0.89277638    -0.73000
O268        O  0.46983417  0.15910829  0.89277512    -0.73200
O269        O  0.03446264  0.15910686  0.89277644    -0.73100
O270        O  0.46983140  0.09522406  0.89277769    -0.73100
O271        O  0.47020520  0.09485400  0.98215846    -0.73100
O272        O  0.03408977  0.15948167  0.98215707    -0.73100
O273        O  0.47020744  0.15948410  0.98215640    -0.73000
O274        O  0.03408752  0.09485141  0.98215753    -0.73200
V275        V  0.00214699  0.12716535  0.89451806     1.35200
V276        V  0.00214745  0.12716767  0.98041568     1.35200
C277        C  0.04516646  0.08414351  0.93746691     0.76200
C278        C  0.45912826  0.17018964  0.93746528     0.76300
C279        C  0.04516935  0.17018735  0.93746725     0.76200
C280        C  0.45912504  0.08414621  0.93746862     0.76100
C281        C  0.06993254  0.19495171  0.93746967     0.79000
N282        N  0.07092913  0.21700143  0.97838324    -0.79300
C283        C  0.09383879  0.24001702  0.97841243     0.81400
N284        N  0.11593060  0.24095206  0.93747785    -0.79300
C285        C  0.11499729  0.21886079  0.89653911     0.81500
N286        N  0.09198261  0.19594992  0.89656005    -0.81000
C287        C  0.06993017  0.05937972  0.93746609     0.79000
N288        N  0.07092862  0.03733006  0.97837666    -0.79300
C289        C  0.09383961  0.01431579  0.97840140     0.81400
N290        N  0.11593072  0.01338249  0.93746572    -0.79300
C291        C  0.11499537  0.03547368  0.89652995     0.81500
N292        N  0.09197959  0.05838308  0.89655524    -0.81000
C293        C  0.43436055  0.05938292  0.93747204     0.79000
N294        N  0.41230864  0.05838538  0.89656385    -0.79300
C295        C  0.38929199  0.03547651  0.89654422     0.81400
N296        N  0.38835858  0.01338650  0.93748192    -0.79300
C297        C  0.41045211  0.01432075  0.97841485     0.81500
N298        N  0.43336373  0.03733462  0.97838457    -0.81000
C299        C  0.43436492  0.19495408  0.93746364     0.79000
N300        N  0.43336636  0.21700401  0.97837654    -0.79300
C301        C  0.41045591  0.24001886  0.97840156     0.81400
N302        N  0.38836569  0.24095256  0.93746385    -0.79300
C303        C  0.38930116  0.21886134  0.89652548     0.81500
N304        N  0.41231630  0.19595128  0.89655073    -0.81000
C305        C  0.18436040  0.55938418  0.31247344     0.79000
N306        N  0.16231017  0.55838614  0.35338314    -0.79300
C307        C  0.13929563  0.53547528  0.35340391     0.81400
N308        N  0.13836247  0.51338404  0.31246502    -0.79300
C309        C  0.16045420  0.51431895  0.27153040     0.81500
N310        N  0.18336378  0.53733453  0.27155964    -0.81000
O311        O  0.22020335  0.59485413  0.26778574    -0.73000
O312        O  0.28408735  0.65948238  0.26778360    -0.73200
O313        O  0.28408528  0.59485231  0.26778655    -0.73100
O314        O  0.22020500  0.65948420  0.26778436    -0.73100
O315        O  0.21983296  0.65911412  0.35716561    -0.73100
O316        O  0.28445830  0.59522761  0.35716731    -0.73100
O317        O  0.28446162  0.65911197  0.35716485    -0.73000
O318        O  0.21982998  0.59522959  0.35716641    -0.73200
V319        V  0.25214527  0.62716832  0.26952716     1.35200
V320        V  0.25214577  0.62717078  0.35542491     1.35200
C321        C  0.20912356  0.58414872  0.31247561     0.76200
C322        C  0.29516786  0.67018994  0.31247324     0.76300
C323        C  0.29516439  0.58414649  0.31247723     0.76200
C324        C  0.20912636  0.67019257  0.31247496     0.76100
C325        C  0.31992771  0.55938204  0.31247947     0.79000
N326        N  0.32092647  0.53733194  0.27156636    -0.79300
C327        C  0.34383679  0.51431724  0.27154139     0.81400
N328        N  0.36592688  0.51338365  0.31247903    -0.79300
C329        C  0.36499135  0.53547498  0.35341768     0.81500
N330        N  0.34197619  0.55838505  0.35339254    -0.81000
C331        C  0.18436253  0.69495639  0.31247602     0.79000
N332        N  0.16231316  0.69595302  0.35338731    -0.79300
C333        C  0.13929746  0.71886234  0.35341304     0.81400
N334        N  0.13836224  0.74095363  0.31247769    -0.79300
C335        C  0.16045314  0.74002039  0.27154145     0.81500
N336        N  0.18336417  0.71700630  0.27156596    -0.81000
C337        C  0.31993237  0.69495308  0.31247066     0.79000
N338        N  0.32092925  0.71700183  0.27155807    -0.79300
C339        C  0.34384091  0.74001542  0.27152869     0.81400
N340        N  0.36593424  0.74094954  0.31246181    -0.79300
C341        C  0.36500065  0.71885927  0.35339933     0.81500
N342        N  0.34198393  0.69595055  0.35337880    -0.81000
C343        C  0.18436466  0.94495362  0.18746414     0.79000
N344        N  0.16231631  0.94595068  0.14655090    -0.79300
C345        C  0.13930139  0.96886096  0.14652506     0.81400
N346        N  0.13836579  0.99095239  0.18746311    -0.79300
C347        C  0.16045562  0.99001865  0.22840134     0.81500
N348        N  0.18336581  0.96700381  0.22837686    -0.81000
O349        O  0.22020526  0.84485390  0.23216019    -0.73000
O350        O  0.28408982  0.90948163  0.23215675    -0.73200
O351        O  0.22020743  0.90948402  0.23215701    -0.73100
O352        O  0.28408763  0.84485139  0.23215816    -0.73100
O353        O  0.28445974  0.84522215  0.14277747    -0.73100
O354        O  0.21983393  0.90910780  0.14277569    -0.73100
O355        O  0.28446210  0.90910660  0.14277596    -0.73000
O356        O  0.21983115  0.84522364  0.14277901    -0.73200
V357        V  0.25214760  0.87716774  0.23041627     1.35200
V358        V  0.25214675  0.87716512  0.14451852     1.35200
C359        C  0.20912488  0.83414596  0.18747046     0.76200
C360        C  0.29516893  0.92018727  0.18746633     0.76300
C361        C  0.20912806  0.92018931  0.18746585     0.76200
C362        C  0.29516646  0.83414342  0.18746790     0.76100
C363        C  0.31993196  0.94495194  0.18746894     0.79000
N364        N  0.34198228  0.94595023  0.14655914    -0.79300
C365        C  0.36499686  0.96886120  0.14653852     0.81400
N366        N  0.36593012  0.99095228  0.18747740    -0.79300
C367        C  0.34383826  0.99001710  0.22841216     0.81500
N368        N  0.32092859  0.96700146  0.22838250    -0.81000
C369        C  0.18436000  0.80938297  0.18747365     0.79000
N370        N  0.16230824  0.80838560  0.14656556    -0.79300
C371        C  0.13929165  0.78547676  0.14654478     0.81400
N372        N  0.13835823  0.76338650  0.18748195    -0.79300
C373        C  0.16045169  0.76432043  0.22841495     0.81500
N374        N  0.18336334  0.78733432  0.22838573    -0.81000
C375        C  0.31993014  0.80937973  0.18746646     0.79000
N376        N  0.32092834  0.78732955  0.22837686    -0.79300
C377        C  0.34383930  0.76431552  0.22840133     0.81400
N378        N  0.36593054  0.76338255  0.18746575    -0.79300
C379        C  0.36499546  0.78547399  0.14653001     0.81500
N380        N  0.34197980  0.80838336  0.14655584    -0.81000
O381        O  0.03408705  0.90948281  0.01778266    -0.73000
O382        O  0.47020336  0.84485437  0.01778515    -0.73200
O383        O  0.47020500  0.90948483  0.01778452    -0.73100
O384        O  0.03408575  0.84485256  0.01778557    -0.73100
O385        O  0.03445887  0.84522816  0.10716614    -0.73100
O386        O  0.46983322  0.90911442  0.10716568    -0.73100
O387        O  0.46983034  0.84522997  0.10716630    -0.73000
O388        O  0.03446187  0.90911249  0.10716387    -0.73200
V389        V  0.00214525  0.87716878  0.01952628     1.35200
V390        V  0.00214607  0.87717124  0.10542405     1.35200
C391        C  0.04516796  0.92019028  0.06247241     0.76200
C392        C  0.45912368  0.83414923  0.06247552     0.76300
C393        C  0.45912637  0.92019290  0.06247534     0.76200
C394        C  0.04516504  0.83414698  0.06247611     0.76100
C395        C  0.06993261  0.94495345  0.06246992     0.79000
N396        N  0.07092940  0.96700207  0.02155747    -0.79300
C397        C  0.09384091  0.99001593  0.02152817     0.81400
N398        N  0.11593436  0.99094994  0.06246103    -0.79300
C399        C  0.11500102  0.96885960  0.10339842     0.83100
N400        N  0.09198458  0.94595062  0.10337782    -0.81000
C401        C  0.06992825  0.80938286  0.06247836     0.79000
N402        N  0.07092704  0.78733255  0.02156564    -0.79300
C403        C  0.09383719  0.76431769  0.02154175     0.81400
N404        N  0.11592701  0.76338397  0.06248013    -0.79300
C405        C  0.11499137  0.78547558  0.10341812     0.81500
N406        N  0.09197655  0.80838591  0.10339160    -0.81000
C407        C  0.43436289  0.94495694  0.06247600     0.79000
N408        N  0.43336462  0.96700677  0.02156603    -0.79300
C409        C  0.41045368  0.99002097  0.02154134     0.81400
N410        N  0.38836238  0.99095404  0.06247712    -0.79300
C411        C  0.38929745  0.96886269  0.10341234     0.81500
N412        N  0.41231320  0.94595340  0.10338694    -0.81000
C413        C  0.43436060  0.80938449  0.06247355     0.79000
N414        N  0.41231060  0.80838621  0.10338334    -0.79300
C415        C  0.38929590  0.78547519  0.10340420     0.81400
N416        N  0.38836265  0.76338395  0.06246525    -0.79300
C417        C  0.41045439  0.76431903  0.02153069     0.81500
N418        N  0.43336397  0.78733483  0.02155988    -0.81000
O419        O  0.03446004  0.59522235  0.39277638    -0.73000
O420        O  0.46983410  0.65910843  0.39277497    -0.73200
O421        O  0.03446259  0.65910694  0.39277601    -0.73100
O422        O  0.46983154  0.59522405  0.39277759    -0.73100
O423        O  0.47020517  0.59485406  0.48215833    -0.73100
O424        O  0.03408980  0.65948170  0.48215714    -0.73100
O425        O  0.47020744  0.65948398  0.48215619    -0.73000
O426        O  0.03408745  0.59485143  0.48215750    -0.73200
V427        V  0.00214705  0.62716542  0.39451803     1.35200
V428        V  0.00214748  0.62716769  0.48041575     1.35200
C429        C  0.04516637  0.58414349  0.43746673     0.76200
C430        C  0.45912826  0.67018970  0.43746498     0.76300
C431        C  0.04516928  0.67018739  0.43746686     0.76200
C432        C  0.45912498  0.58414630  0.43746864     0.76100
C433        C  0.06993253  0.69495175  0.43746976     0.79000
N434        N  0.07092904  0.71700140  0.47838342    -0.79300
C435        C  0.09383878  0.74001710  0.47841286     0.81400
N436        N  0.11593051  0.74095219  0.43747795    -0.79300
C437        C  0.11499725  0.71886090  0.39653924     0.81500
N438        N  0.09198268  0.69595001  0.39655997    -0.81000
C439        C  0.06993011  0.55937968  0.43746649     0.79000
N440        N  0.07092849  0.53733010  0.47837670    -0.79300
C441        C  0.09383943  0.51431589  0.47840148     0.81400
N442        N  0.11593058  0.51338270  0.43746546    -0.79300
C443        C  0.11499538  0.53547378  0.39653001     0.81500
N444        N  0.09197963  0.55838302  0.39655530    -0.81000
C445        C  0.43436029  0.55938291  0.43747164     0.79000
N446        N  0.41230858  0.55838540  0.39656354    -0.79300
C447        C  0.38929187  0.53547648  0.39654373     0.81400
N448        N  0.38835843  0.51338648  0.43748168    -0.79300
C449        C  0.41045190  0.51432062  0.47841448     0.81500
N450        N  0.43336362  0.53733437  0.47838428    -0.81000
C451        C  0.43436516  0.69495423  0.43746396     0.79000
N452        N  0.43336636  0.71700414  0.47837674    -0.79300
C453        C  0.41045590  0.74001891  0.47840190     0.81400
N454        N  0.38836576  0.74095247  0.43746366    -0.79300
C455        C  0.38930130  0.71886113  0.39652556     0.81500
N456        N  0.41231643  0.69595111  0.39655071    -0.81000
C457        C  0.18436053  0.55938428  0.81247326     0.79000
N458        N  0.16231038  0.55838617  0.85338294    -0.79300
C459        C  0.13929581  0.53547519  0.85340373     0.81400
N460        N  0.13836242  0.51338401  0.81246486    -0.79300
C461        C  0.16045422  0.51431894  0.77153040     0.81500
N462        N  0.18336380  0.53733470  0.77155962    -0.81000
O463        O  0.22020330  0.59485409  0.76778550    -0.73000
O464        O  0.28408711  0.65948247  0.76778436    -0.73200
O465        O  0.28408563  0.59485216  0.76778661    -0.73100
O466        O  0.22020488  0.65948445  0.76778482    -0.73100
O467        O  0.21983303  0.65911406  0.85716551    -0.73100
O468        O  0.28445846  0.59522755  0.85716770    -0.73100
O469        O  0.28446164  0.65911211  0.85716496    -0.73000
O470        O  0.21982998  0.59522961  0.85716668    -0.73200
V471        V  0.25214521  0.62716835  0.76952711     1.35200
V472        V  0.25214566  0.62717079  0.85542466     1.35200
C473        C  0.20912357  0.58414882  0.81247589     0.76200
C474        C  0.29516780  0.67019011  0.81247391     0.76300
C475        C  0.29516452  0.58414629  0.81247776     0.76200
C476        C  0.20912633  0.67019261  0.81247524     0.76100
C477        C  0.31992756  0.55938198  0.81247885     0.79000
N478        N  0.32092628  0.53733201  0.77156619    -0.79300
C479        C  0.34383672  0.51431744  0.77154113     0.81400
N480        N  0.36592686  0.51338369  0.81247943    -0.79300
C481        C  0.36499123  0.53547501  0.85341757     0.81500
N482        N  0.34197618  0.55838500  0.85339223    -0.81000
C483        C  0.18436264  0.69495617  0.81247633     0.79000
N484        N  0.16231325  0.69595286  0.85338740    -0.79300
C485        C  0.13929751  0.71886225  0.85341305     0.81400
N486        N  0.13836224  0.74095367  0.81247754    -0.79300
C487        C  0.16045328  0.74002039  0.77154164     0.81500
N488        N  0.18336419  0.71700603  0.77156598    -0.81000
C489        C  0.31993237  0.69495334  0.81247081     0.79000
N490        N  0.32092917  0.71700168  0.77155824    -0.79300
C491        C  0.34384082  0.74001547  0.77152836     0.81400
N492        N  0.36593431  0.74094960  0.81246138    -0.79300
C493        C  0.36500073  0.71885974  0.85339914     0.81500
N494        N  0.34198424  0.69595075  0.85337884    -0.81000
C495        C  0.18436479  0.94495368  0.68746458     0.79000
N496        N  0.16231631  0.94595075  0.64655089    -0.79300
C497        C  0.13930146  0.96886097  0.64652500     0.81400
N498        N  0.13836578  0.99095228  0.68746299    -0.79300
C499        C  0.16045574  0.99001855  0.72840159     0.81500
N500        N  0.18336605  0.96700376  0.72837712    -0.81000
O501        O  0.22020530  0.84485397  0.73215993    -0.73000
O502        O  0.28408955  0.90948170  0.73215741    -0.73200
O503        O  0.22020759  0.90948410  0.73215677    -0.73100
O504        O  0.28408765  0.84485148  0.73215833    -0.73100
O505        O  0.28445974  0.84522220  0.64277716    -0.73100
O506        O  0.21983358  0.90910788  0.64277562    -0.73100
O507        O  0.28446216  0.90910654  0.64277622    -0.73000
O508        O  0.21983111  0.84522343  0.64277878    -0.73200
V509        V  0.25214750  0.87716774  0.73041638     1.35200
V510        V  0.25214669  0.87716505  0.64451850     1.35200
C511        C  0.20912472  0.83414610  0.68747030     0.76200
C512        C  0.29516896  0.92018717  0.68746699     0.76300
C513        C  0.20912797  0.92018939  0.68746569     0.76200
C514        C  0.29516641  0.83414352  0.68746745     0.76100
C515        C  0.31993214  0.94495193  0.68746868     0.79000
N516        N  0.34198226  0.94595012  0.64655902    -0.79300
C517        C  0.36499692  0.96886111  0.64653830     0.81400
N518        N  0.36593031  0.99095215  0.68747743    -0.79300
C519        C  0.34383860  0.99001711  0.72841192     0.81500
N520        N  0.32092885  0.96700159  0.72838236    -0.81000
C521        C  0.18436018  0.80938302  0.68747363     0.79000
N522        N  0.16230841  0.80838593  0.64656561    -0.79300
C523        C  0.13929189  0.78547702  0.64654478     0.81400
N524        N  0.13835832  0.76338659  0.68748188    -0.79300
C525        C  0.16045164  0.76432053  0.72841515     0.81500
N526        N  0.18336326  0.78733429  0.72838574    -0.81000
C527        C  0.31993015  0.80937940  0.68746717     0.79000
N528        N  0.32092843  0.78732952  0.72837705    -0.79300
C529        C  0.34383939  0.76431514  0.72840158     0.81400
N530        N  0.36593079  0.76338237  0.68746575    -0.79300
C531        C  0.36499568  0.78547377  0.64653066     0.81500
N532        N  0.34197980  0.80838304  0.64655609    -0.81000
O533        O  0.03408736  0.90948276  0.51778252    -0.73000
O534        O  0.47020340  0.84485453  0.51778576    -0.73200
O535        O  0.47020497  0.90948476  0.51778430    -0.73100
O536        O  0.03408570  0.84485277  0.51778555    -0.73100
O537        O  0.03445874  0.84522829  0.60716638    -0.73100
O538        O  0.46983342  0.90911439  0.60716560    -0.73100
O539        O  0.46983043  0.84522995  0.60716648    -0.73000
O540        O  0.03446183  0.90911236  0.60716383    -0.73200
V541        V  0.00214535  0.87716878  0.51952620     1.35200
V542        V  0.00214610  0.87717129  0.60542408     1.35200
C543        C  0.04516792  0.92019034  0.56247235     0.76200
C544        C  0.45912388  0.83414908  0.56247595     0.76300
C545        C  0.45912654  0.92019290  0.56247520     0.76200
C546        C  0.04516481  0.83414709  0.56247638     0.76100
C547        C  0.06993272  0.94495341  0.56246953     0.79000
N548        N  0.07092934  0.96700222  0.52155746    -0.79300
C549        C  0.09384099  0.99001596  0.52152805     0.81400
N550        N  0.11593441  0.99094991  0.56246123    -0.79300
C551        C  0.11500106  0.96885953  0.60339835     0.83100
N552        N  0.09198442  0.94595077  0.60337789    -0.81000
C553        C  0.06992811  0.80938290  0.56247808     0.79000
N554        N  0.07092689  0.78733268  0.52156562    -0.79300
C555        C  0.09383713  0.76431780  0.52154160     0.81400
N556        N  0.11592698  0.76338403  0.56248027    -0.79300
C557        C  0.11499137  0.78547553  0.60341811     0.81500
N558        N  0.09197649  0.80838580  0.60339166    -0.81000
C559        C  0.43436283  0.94495674  0.56247621     0.79000
N560        N  0.43336463  0.96700669  0.52156603    -0.79300
C561        C  0.41045365  0.99002096  0.52154146     0.81400
N562        N  0.38836235  0.99095407  0.56247715    -0.79300
C563        C  0.38929739  0.96886263  0.60341257     0.81500
N564        N  0.41231317  0.94595333  0.60338706    -0.81000
C565        C  0.43436083  0.80938455  0.56247341     0.79000
N566        N  0.41231070  0.80838637  0.60338331    -0.79300
C567        C  0.38929616  0.78547542  0.60340452     0.81400
N568        N  0.38836271  0.76338424  0.56246590    -0.79300
C569        C  0.41045441  0.76431928  0.52153091     0.81500
N570        N  0.43336408  0.78733489  0.52156008    -0.81000
O571        O  0.03445996  0.59522259  0.89277709    -0.73000
O572        O  0.46983429  0.65910845  0.89277499    -0.73200
O573        O  0.03446261  0.65910681  0.89277658    -0.73100
O574        O  0.46983125  0.59522402  0.89277759    -0.73100
O575        O  0.47020536  0.59485403  0.98215829    -0.73100
O576        O  0.03408971  0.65948162  0.98215736    -0.73100
O577        O  0.47020741  0.65948421  0.98215631    -0.73000
O578        O  0.03408742  0.59485145  0.98215782    -0.73200
V579        V  0.00214705  0.62716556  0.89451798     1.35200
V580        V  0.00214745  0.62716780  0.98041566     1.35200
C581        C  0.04516629  0.58414354  0.93746745     0.76200
C582        C  0.45912833  0.67018976  0.93746521     0.76300
C583        C  0.04516917  0.67018732  0.93746736     0.76200
C584        C  0.45912508  0.58414610  0.93746854     0.76100
C585        C  0.06993248  0.69495171  0.93747008     0.79000
N586        N  0.07092918  0.71700150  0.97838353    -0.79300
C587        C  0.09383883  0.74001718  0.97841258     0.81400
N588        N  0.11593059  0.74095214  0.93747785    -0.79300
C589        C  0.11499717  0.71886086  0.89653913     0.81500
N590        N  0.09198257  0.69594987  0.89656029    -0.81000
C591        C  0.06993014  0.55937992  0.93746614     0.79000
N592        N  0.07092854  0.53732995  0.97837661    -0.79300
C593        C  0.09383963  0.51431592  0.97840136     0.81400
N594        N  0.11593060  0.51338263  0.93746548    -0.79300
C595        C  0.11499529  0.53547391  0.89652962     0.81500
N596        N  0.09197945  0.55838321  0.89655504    -0.81000
C597        C  0.43436060  0.55938294  0.93747192     0.79000
N598        N  0.41230873  0.55838559  0.89656364    -0.79300
C599        C  0.38929208  0.53547677  0.89654402     0.81400
N600        N  0.38835859  0.51338668  0.93748153    -0.79300
C601        C  0.41045201  0.51432082  0.97841475     0.81500
N602        N  0.43336367  0.53733458  0.97838442    -0.81000
C603        C  0.43436504  0.69495404  0.93746373     0.79000
N604        N  0.43336635  0.71700406  0.97837669    -0.79300
C605        C  0.41045599  0.74001879  0.97840147     0.81400
N606        N  0.38836572  0.74095242  0.93746379    -0.79300
C607        C  0.38930133  0.71886122  0.89652545     0.81500
N608        N  0.41231638  0.69595113  0.89655085    -0.81000
C609        C  0.68436057  0.05938420  0.31247341     0.79000
N610        N  0.66231026  0.05838620  0.35338296    -0.79300
C611        C  0.63929561  0.03547533  0.35340388     0.81400
N612        N  0.63836242  0.01338401  0.31246517    -0.79300
C613        C  0.66045414  0.01431897  0.27153043     0.81500
N614        N  0.68336383  0.03733456  0.27155962    -0.81000
O615        O  0.72020350  0.09485422  0.26778563    -0.73000
O616        O  0.78408720  0.15948242  0.26778371    -0.73200
O617        O  0.78408541  0.09485222  0.26778657    -0.73100
O618        O  0.72020493  0.15948438  0.26778426    -0.73100
O619        O  0.71983317  0.15911412  0.35716552    -0.73100
O620        O  0.78445839  0.09522748  0.35716731    -0.73100
O621        O  0.78446156  0.15911205  0.35716494    -0.73000
O622        O  0.71983009  0.09522977  0.35716645    -0.73200
V623        V  0.75214524  0.12716834  0.26952720     1.35200
V624        V  0.75214574  0.12717081  0.35542500     1.35200
C625        C  0.70912373  0.08414892  0.31247564     0.76200
C626        C  0.79516777  0.17019000  0.31247337     0.76300
C627        C  0.79516459  0.08414650  0.31247733     0.76200
C628        C  0.70912636  0.17019255  0.31247489     0.76100
C629        C  0.81992766  0.05938198  0.31247927     0.79000
N630        N  0.82092646  0.03733203  0.27156632    -0.79300
C631        C  0.84383679  0.01431723  0.27154138     0.81400
N632        N  0.86592700  0.01338361  0.31247920    -0.79300
C633        C  0.86499138  0.03547491  0.35341766     0.81500
N634        N  0.84197621  0.05838499  0.35339246    -0.81000
C635        C  0.68436264  0.19495622  0.31247592     0.79000
N636        N  0.66231323  0.19595301  0.35338722    -0.79300
C637        C  0.63929756  0.21886227  0.35341304     0.81400
N638        N  0.63836232  0.24095356  0.31247758    -0.79300
C639        C  0.66045338  0.24002029  0.27154152     0.81500
N640        N  0.68336429  0.21700608  0.27156574    -0.81000
C641        C  0.81993237  0.19495319  0.31247077     0.79000
N642        N  0.82092919  0.21700178  0.27155824    -0.79300
C643        C  0.84384088  0.24001541  0.27152855     0.81400
N644        N  0.86593423  0.24094960  0.31246154    -0.79300
C645        C  0.86500074  0.21885949  0.35339918     0.81500
N646        N  0.84198413  0.19595069  0.35337869    -0.81000
C647        C  0.68436469  0.44495354  0.18746409     0.79000
N648        N  0.66231629  0.44595071  0.14655084    -0.79300
C649        C  0.63930142  0.46886093  0.14652511     0.81400
N650        N  0.63836590  0.49095230  0.18746326    -0.79300
C651        C  0.66045578  0.49001843  0.22840139     0.81500
N652        N  0.68336600  0.46700366  0.22837679    -0.81000
O653        O  0.72020526  0.34485383  0.23215994    -0.73000
O654        O  0.78408974  0.40948173  0.23215662    -0.73200
O655        O  0.72020749  0.40948405  0.23215679    -0.73100
O656        O  0.78408768  0.34485140  0.23215828    -0.73100
O657        O  0.78445968  0.34522206  0.14277757    -0.73100
O658        O  0.71983370  0.40910789  0.14277561    -0.73100
O659        O  0.78446230  0.40910660  0.14277606    -0.73000
O660        O  0.71983116  0.34522337  0.14277882    -0.73200
V661        V  0.75214758  0.37716761  0.23041626     1.35200
V662        V  0.75214676  0.37716491  0.14451870     1.35200
C663        C  0.70912477  0.33414594  0.18747029     0.76200
C664        C  0.79516912  0.42018733  0.18746635     0.76300
C665        C  0.70912791  0.42018935  0.18746578     0.76200
C666        C  0.79516641  0.33414341  0.18746793     0.76100
C667        C  0.81993215  0.44495205  0.18746888     0.79000
N668        N  0.84198230  0.44595015  0.14655889    -0.79300
C669        C  0.86499688  0.46886105  0.14653850     0.81400
N670        N  0.86593015  0.49095220  0.18747741    -0.79300
C671        C  0.84383841  0.49001718  0.22841217     0.81500
N672        N  0.82092883  0.46700164  0.22838253    -0.81000
C673        C  0.68436017  0.30938304  0.18747354     0.79000
N674        N  0.66230845  0.30838587  0.14656547    -0.79300
C675        C  0.63929188  0.28547696  0.14654470     0.81400
N676        N  0.63835834  0.26338660  0.18748193    -0.79300
C677        C  0.66045177  0.26432049  0.22841493     0.81500
N678        N  0.68336335  0.28733432  0.22838569    -0.81000
C679        C  0.81993015  0.30937973  0.18746666     0.79000
N680        N  0.82092843  0.28732958  0.22837694    -0.79300
C681        C  0.84383939  0.26431545  0.22840120     0.81400
N682        N  0.86593077  0.26338251  0.18746540    -0.79300
C683        C  0.86499562  0.28547406  0.14653001     0.81500
N684        N  0.84197985  0.30838336  0.14655582    -0.81000
O685        O  0.53408710  0.40948278  0.01778261    -0.73000
O686        O  0.97020354  0.34485451  0.01778513    -0.73200
O687        O  0.97020511  0.40948471  0.01778445    -0.73100
O688        O  0.53408557  0.34485271  0.01778550    -0.73100
O689        O  0.53445880  0.34522825  0.10716624    -0.73100
O690        O  0.96983324  0.40911443  0.10716564    -0.73100
O691        O  0.96983040  0.34522997  0.10716640    -0.73000
O692        O  0.53446196  0.40911245  0.10716390    -0.73200
V693        V  0.50214530  0.37716878  0.01952617     1.35200
V694        V  0.50214615  0.37717126  0.10542410     1.35200
C695        C  0.54516788  0.42019032  0.06247227     0.76200
C696        C  0.95912388  0.33414920  0.06247571     0.76300
C697        C  0.95912658  0.42019297  0.06247533     0.76200
C698        C  0.54516487  0.33414707  0.06247616     0.76100
C699        C  0.56993261  0.44495334  0.06246993     0.79000
N700        N  0.57092939  0.46700218  0.02155769    -0.79300
C701        C  0.59384116  0.49001589  0.02152824     0.81400
N702        N  0.61593449  0.49094998  0.06246124    -0.79300
C703        C  0.61500101  0.46885955  0.10339858     0.83100
N704        N  0.59198438  0.44595059  0.10337781    -0.81000
C705        C  0.56992831  0.30938285  0.06247842     0.79000
N706        N  0.57092709  0.28733264  0.02156557    -0.79300
C707        C  0.59383711  0.26431756  0.02154169     0.81400
N708        N  0.61592701  0.26338392  0.06247993    -0.79300
C709        C  0.61499144  0.28547540  0.10341817     0.81500
N710        N  0.59197666  0.30838581  0.10339177    -0.81000
C711        C  0.93436291  0.44495685  0.06247590     0.79000
N712        N  0.93336464  0.46700678  0.02156614    -0.79300
C713        C  0.91045365  0.49002103  0.02154138     0.81400
N714        N  0.88836232  0.49095399  0.06247715    -0.79300
C715        C  0.88929752  0.46886262  0.10341239     0.81500
N716        N  0.91231324  0.44595329  0.10338692    -0.81000
C717        C  0.93436083  0.30938431  0.06247300     0.79000
N718        N  0.91231061  0.30838619  0.10338316    -0.79300
C719        C  0.88929605  0.28547529  0.10340413     0.81400
N720        N  0.88836276  0.26338419  0.06246566    -0.79300
C721        C  0.91045447  0.26431909  0.02153059     0.81500
N722        N  0.93336410  0.28733477  0.02155971    -0.81000
O723        O  0.53445999  0.09522252  0.39277651    -0.73000
O724        O  0.96983409  0.15910843  0.39277489    -0.73200
O725        O  0.53446252  0.15910676  0.39277593    -0.73100
O726        O  0.96983152  0.09522412  0.39277757    -0.73100
O727        O  0.97020541  0.09485411  0.48215840    -0.73100
O728        O  0.53408955  0.15948157  0.48215732    -0.73100
O729        O  0.97020751  0.15948417  0.48215615    -0.73000
O730        O  0.53408750  0.09485145  0.48215777    -0.73200
V731        V  0.50214715  0.12716552  0.39451789     1.35200
V732        V  0.50214756  0.12716781  0.48041580     1.35200
C733        C  0.54516630  0.08414360  0.43746688     0.76200
C734        C  0.95912831  0.17018979  0.43746500     0.76300
C735        C  0.54516909  0.17018718  0.43746680     0.76200
C736        C  0.95912509  0.08414637  0.43746865     0.76100
C737        C  0.56993244  0.19495182  0.43747014     0.79000
N738        N  0.57092906  0.21700142  0.47838363    -0.79300
C739        C  0.59383874  0.24001717  0.47841304     0.81400
N740        N  0.61593051  0.24095213  0.43747809    -0.79300
C741        C  0.61499727  0.21886103  0.39653939     0.81500
N742        N  0.59198278  0.19595009  0.39656020    -0.81000
C743        C  0.56992995  0.05937980  0.43746685     0.79000
N744        N  0.57092841  0.03733007  0.47837687    -0.79300
C745        C  0.59383945  0.01431585  0.47840139     0.81400
N746        N  0.61593067  0.01338270  0.43746530    -0.79300
C747        C  0.61499523  0.03547383  0.39652991     0.81500
N748        N  0.59197944  0.05838308  0.39655555    -0.81000
C749        C  0.93436066  0.05938300  0.43747177     0.79000
N750        N  0.91230873  0.05838553  0.39656373    -0.79300
C751        C  0.88929208  0.03547666  0.39654374     0.81400
N752        N  0.88835857  0.01338664  0.43748144    -0.79300
C753        C  0.91045213  0.01432080  0.47841442     0.81500
N754        N  0.93336381  0.03733458  0.47838446    -0.81000
C755        C  0.93436511  0.19495413  0.43746393     0.79000
N756        N  0.93336635  0.21700420  0.47837658    -0.79300
C757        C  0.91045593  0.24001888  0.47840182     0.81400
N758        N  0.88836573  0.24095245  0.43746366    -0.79300
C759        C  0.88930136  0.21886112  0.39652544     0.81500
N760        N  0.91231647  0.19595103  0.39655061    -0.81000
C761        C  0.68436030  0.05938423  0.81247354     0.79000
N762        N  0.66231015  0.05838596  0.85338317    -0.79300
C763        C  0.63929550  0.03547508  0.85340389     0.81400
N764        N  0.63836228  0.01338397  0.81246509    -0.79300
C765        C  0.66045401  0.01431897  0.77153056     0.81500
N766        N  0.68336369  0.03733463  0.77155986    -0.81000
O767        O  0.72020336  0.09485411  0.76778555    -0.73000
O768        O  0.78408722  0.15948235  0.76778404    -0.73200
O769        O  0.78408547  0.09485231  0.76778644    -0.73100
O770        O  0.72020495  0.15948428  0.76778479    -0.73100
O771        O  0.71983292  0.15911396  0.85716546    -0.73100
O772        O  0.78445849  0.09522762  0.85716778    -0.73100
O773        O  0.78446160  0.15911186  0.85716481    -0.73000
O774        O  0.71983003  0.09522967  0.85716682    -0.73200
V775        V  0.75214531  0.12716824  0.76952702     1.35200
V776        V  0.75214578  0.12717068  0.85542482     1.35200
C777        C  0.70912371  0.08414874  0.81247588     0.76200
C778        C  0.79516782  0.17018984  0.81247373     0.76300
C779        C  0.79516438  0.08414646  0.81247773     0.76200
C780        C  0.70912634  0.17019265  0.81247528     0.76100
C781        C  0.81992727  0.05938207  0.81247890     0.79000
N782        N  0.82092622  0.03733208  0.77156614    -0.79300
C783        C  0.84383658  0.01431739  0.77154096     0.81400
N784        N  0.86592676  0.01338371  0.81247913    -0.79300
C785        C  0.86499107  0.03547508  0.85341743     0.81500
N786        N  0.84197609  0.05838520  0.85339218    -0.81000
C787        C  0.68436261  0.19495648  0.81247615     0.79000
N788        N  0.66231309  0.19595301  0.85338722    -0.79300
C789        C  0.63929752  0.21886241  0.85341303     0.81400
N790        N  0.63836227  0.24095364  0.81247754    -0.79300
C791        C  0.66045328  0.24002049  0.77154146     0.81500
N792        N  0.68336417  0.21700618  0.77156581    -0.81000
C793        C  0.81993227  0.19495315  0.81247060     0.79000
N794        N  0.82092919  0.21700175  0.77155813    -0.79300
C795        C  0.84384091  0.24001555  0.77152832     0.81400
N796        N  0.86593428  0.24094962  0.81246140    -0.79300
C797        C  0.86500060  0.21885952  0.85339894     0.81500
N798        N  0.84198400  0.19595056  0.85337859    -0.81000
C799        C  0.68436480  0.44495362  0.68746451     0.79000
N800        N  0.66231639  0.44595068  0.64655092    -0.79300
C801        C  0.63930154  0.46886099  0.64652505     0.81400
N802        N  0.63836576  0.49095236  0.68746317    -0.79300
C803        C  0.66045572  0.49001862  0.72840164     0.81500
N804        N  0.68336597  0.46700376  0.72837717    -0.81000
O805        O  0.72020545  0.34485398  0.73216008    -0.73000
O806        O  0.78408977  0.40948160  0.73215740    -0.73200
O807        O  0.72020748  0.40948404  0.73215680    -0.73100
O808        O  0.78408761  0.34485143  0.73215810    -0.73100
O809        O  0.78445975  0.34522204  0.64277689    -0.73100
O810        O  0.71983365  0.40910781  0.64277560    -0.73100
O811        O  0.78446210  0.40910665  0.64277617    -0.73000
O812        O  0.71983118  0.34522363  0.64277891    -0.73200
V813        V  0.75214758  0.37716765  0.73041645     1.35200
V814        V  0.75214670  0.37716505  0.64451851     1.35200
C815        C  0.70912492  0.33414608  0.68747047     0.76200
C816        C  0.79516898  0.42018720  0.68746695     0.76300
C817        C  0.70912796  0.42018932  0.68746566     0.76200
C818        C  0.79516635  0.33414343  0.68746736     0.76100
C819        C  0.81993211  0.44495186  0.68746858     0.79000
N820        N  0.84198233  0.44595012  0.64655898    -0.79300
C821        C  0.86499688  0.46886124  0.64653824     0.81400
N822        N  0.86593022  0.49095217  0.68747768    -0.79300
C823        C  0.84383836  0.49001709  0.72841200     0.81500
N824        N  0.82092865  0.46700147  0.72838228    -0.81000
C825        C  0.68436004  0.30938299  0.68747372     0.79000
N826        N  0.66230828  0.30838582  0.64656555    -0.79300
C827        C  0.63929170  0.28547703  0.64654469     0.81400
N828        N  0.63835834  0.26338657  0.68748163    -0.79300
C829        C  0.66045160  0.26432051  0.72841506     0.81500
N830        N  0.68336331  0.28733419  0.72838577    -0.81000
C831        C  0.81993005  0.30937965  0.68746699     0.79000
N832        N  0.82092823  0.28732957  0.72837679    -0.79300
C833        C  0.84383934  0.26431548  0.72840152     0.81400
N834        N  0.86593063  0.26338254  0.68746562    -0.79300
C835        C  0.86499559  0.28547398  0.64653043     0.81500
N836        N  0.84197971  0.30838321  0.64655599    -0.81000
O837        O  0.53408733  0.40948298  0.51778258    -0.73000
O838        O  0.97020338  0.34485453  0.51778565    -0.73200
O839        O  0.97020501  0.40948486  0.51778439    -0.73100
O840        O  0.53408562  0.34485268  0.51778556    -0.73100
O841        O  0.53445888  0.34522824  0.60716631    -0.73100
O842        O  0.96983336  0.40911438  0.60716571    -0.73100
O843        O  0.96983044  0.34523012  0.60716642    -0.73000
O844        O  0.53446189  0.40911244  0.60716378    -0.73200
V845        V  0.50214526  0.37716882  0.51952621     1.35200
V846        V  0.50214608  0.37717131  0.60542394     1.35200
C847        C  0.54516795  0.42019047  0.56247245     0.76200
C848        C  0.95912392  0.33414917  0.56247592     0.76300
C849        C  0.95912652  0.42019290  0.56247527     0.76200
C850        C  0.54516500  0.33414716  0.56247636     0.76100
C851        C  0.56993273  0.44495335  0.56246953     0.79000
N852        N  0.57092940  0.46700215  0.52155762    -0.79300
C853        C  0.59384103  0.49001599  0.52152819     0.81400
N854        N  0.61593457  0.49094995  0.56246119    -0.79300
C855        C  0.61500105  0.46885957  0.60339834     0.83100
N856        N  0.59198445  0.44595061  0.60337779    -0.81000
C857        C  0.56992810  0.30938270  0.56247800     0.79000
N858        N  0.57092706  0.28733253  0.52156555    -0.79300
C859        C  0.59383726  0.26431762  0.52154165     0.81400
N860        N  0.61592706  0.26338403  0.56248044    -0.79300
C861        C  0.61499134  0.28547558  0.60341806     0.81500
N862        N  0.59197646  0.30838585  0.60339161    -0.81000
C863        C  0.93436288  0.44495677  0.56247622     0.79000
N864        N  0.93336469  0.46700673  0.52156612    -0.79300
C865        C  0.91045368  0.49002096  0.52154144     0.81400
N866        N  0.88836233  0.49095415  0.56247700    -0.79300
C867        C  0.88929739  0.46886278  0.60341245     0.81500
N868        N  0.91231319  0.44595338  0.60338706    -0.81000
C869        C  0.93436071  0.30938459  0.56247347     0.79000
N870        N  0.91231065  0.30838624  0.60338322    -0.79300
C871        C  0.88929613  0.28547515  0.60340432     0.81400
N872        N  0.88836266  0.26338404  0.56246552    -0.79300
C873        C  0.91045439  0.26431920  0.52153082     0.81500
N874        N  0.93336397  0.28733500  0.52156016    -0.81000
O875        O  0.53445996  0.09522233  0.89277640    -0.73000
O876        O  0.96983409  0.15910838  0.89277514    -0.73200
O877        O  0.53446264  0.15910689  0.89277649    -0.73100
O878        O  0.96983142  0.09522412  0.89277772    -0.73100
O879        O  0.97020517  0.09485402  0.98215846    -0.73100
O880        O  0.53408976  0.15948168  0.98215715    -0.73100
O881        O  0.97020738  0.15948420  0.98215629    -0.73000
O882        O  0.53408746  0.09485149  0.98215754    -0.73200
V883        V  0.50214697  0.12716540  0.89451800     1.35200
V884        V  0.50214743  0.12716771  0.98041571     1.35200
C885        C  0.54516643  0.08414354  0.93746690     0.76200
C886        C  0.95912806  0.17018967  0.93746520     0.76300
C887        C  0.54516937  0.17018733  0.93746725     0.76200
C888        C  0.95912502  0.08414622  0.93746862     0.76100
C889        C  0.56993244  0.19495169  0.93746976     0.79000
N890        N  0.57092915  0.21700140  0.97838329    -0.79300
C891        C  0.59383874  0.24001700  0.97841245     0.81400
N892        N  0.61593050  0.24095202  0.93747778    -0.79300
C893        C  0.61499716  0.21886068  0.89653919     0.81500
N894        N  0.59198251  0.19594984  0.89656007    -0.81000
C895        C  0.56993022  0.05937971  0.93746609     0.79000
N896        N  0.57092860  0.03733005  0.97837668    -0.79300
C897        C  0.59383952  0.01431579  0.97840147     0.81400
N898        N  0.61593059  0.01338253  0.93746575    -0.79300
C899        C  0.61499538  0.03547370  0.89652995     0.81500
N900        N  0.59197967  0.05838304  0.89655512    -0.81000
C901        C  0.93436044  0.05938287  0.93747196     0.79000
N902        N  0.91230857  0.05838535  0.89656375    -0.79300
C903        C  0.88929189  0.03547652  0.89654417     0.81400
N904        N  0.88835860  0.01338648  0.93748186    -0.79300
C905        C  0.91045207  0.01432071  0.97841487     0.81500
N906        N  0.93336367  0.03733453  0.97838450    -0.81000
C907        C  0.93436496  0.19495416  0.93746372     0.79000
N908        N  0.93336636  0.21700405  0.97837661    -0.79300
C909        C  0.91045591  0.24001886  0.97840160     0.81400
N910        N  0.88836568  0.24095254  0.93746377    -0.79300
C911        C  0.88930117  0.21886127  0.89652551     0.81500
N912        N  0.91231632  0.19595124  0.89655081    -0.81000
C913        C  0.68436047  0.55938421  0.31247339     0.79000
N914        N  0.66231019  0.55838622  0.35338311    -0.79300
C915        C  0.63929566  0.53547528  0.35340400     0.81400
N916        N  0.63836240  0.51338407  0.31246501    -0.79300
C917        C  0.66045421  0.51431894  0.27153042     0.81500
N918        N  0.68336377  0.53733455  0.27155965    -0.81000
O919        O  0.72020347  0.59485414  0.26778575    -0.73000
O920        O  0.78408728  0.65948241  0.26778359    -0.73200
O921        O  0.78408537  0.59485231  0.26778657    -0.73100
O922        O  0.72020498  0.65948432  0.26778435    -0.73100
O923        O  0.71983302  0.65911417  0.35716552    -0.73100
O924        O  0.78445827  0.59522756  0.35716733    -0.73100
O925        O  0.78446170  0.65911200  0.35716483    -0.73000
O926        O  0.71983000  0.59522954  0.35716647    -0.73200
V927        V  0.75214535  0.62716829  0.26952719     1.35200
V928        V  0.75214585  0.62717074  0.35542491     1.35200
C929        C  0.70912369  0.58414868  0.31247566     0.76200
C930        C  0.79516785  0.67018994  0.31247330     0.76300
C931        C  0.79516443  0.58414650  0.31247726     0.76200
C932        C  0.70912632  0.67019264  0.31247493     0.76100
C933        C  0.81992771  0.55938207  0.31247945     0.79000
N934        N  0.82092646  0.53733195  0.27156634    -0.79300
C935        C  0.84383680  0.51431726  0.27154131     0.81400
N936        N  0.86592686  0.51338363  0.31247897    -0.79300
C937        C  0.86499138  0.53547500  0.35341758     0.81500
N938        N  0.84197621  0.55838506  0.35339250    -0.81000
C939        C  0.68436255  0.69495635  0.31247596     0.79000
N940        N  0.66231319  0.69595303  0.35338723    -0.79300
C941        C  0.63929746  0.71886231  0.35341294     0.81400
N942        N  0.63836225  0.74095366  0.31247765    -0.79300
C943        C  0.66045317  0.74002039  0.27154145     0.81500
N944        N  0.68336416  0.71700625  0.27156591    -0.81000
C945        C  0.81993217  0.69495303  0.31247047     0.79000
N946        N  0.82092910  0.71700168  0.27155795    -0.79300
C947        C  0.84384071  0.74001533  0.27152858     0.81400
N948        N  0.86593421  0.74094943  0.31246174    -0.79300
C949        C  0.86500051  0.71885927  0.35339935     0.81500
N950        N  0.84198392  0.69595049  0.35337872    -0.81000
C951        C  0.68436486  0.94495362  0.18746431     0.79000
N952        N  0.66231638  0.94595064  0.14655097    -0.79300
C953        C  0.63930152  0.96886088  0.14652511     0.81400
N954        N  0.63836588  0.99095231  0.18746311    -0.79300
C955        C  0.66045577  0.99001859  0.22840147     0.81500
N956        N  0.68336593  0.96700373  0.22837714    -0.81000
O957        O  0.72020534  0.84485398  0.23216017    -0.73000
O958        O  0.78408982  0.90948160  0.23215675    -0.73200
O959        O  0.72020746  0.90948394  0.23215709    -0.73100
O960        O  0.78408762  0.84485154  0.23215826    -0.73100
O961        O  0.78445970  0.84522225  0.14277743    -0.73100
O962        O  0.71983397  0.90910781  0.14277573    -0.73100
O963        O  0.78446217  0.90910656  0.14277594    -0.73000
O964        O  0.71983122  0.84522360  0.14277889    -0.73200
V965        V  0.75214764  0.87716771  0.23041636     1.35200
V966        V  0.75214681  0.87716508  0.14451846     1.35200
C967        C  0.70912498  0.83414600  0.18747051     0.76200
C968        C  0.79516896  0.92018724  0.18746633     0.76300
C969        C  0.70912813  0.92018931  0.18746585     0.76200
C970        C  0.79516631  0.83414349  0.18746793     0.76100
C971        C  0.81993200  0.94495193  0.18746895     0.79000
N972        N  0.84198231  0.94595023  0.14655914    -0.79300
C973        C  0.86499689  0.96886123  0.14653850     0.81400
N974        N  0.86593013  0.99095229  0.18747743    -0.79300
C975        C  0.84383828  0.99001710  0.22841216     0.81500
N976        N  0.82092860  0.96700145  0.22838248    -0.81000
C977        C  0.68435999  0.80938308  0.18747361     0.79000
N978        N  0.66230840  0.80838575  0.14656546    -0.79300
C979        C  0.63929167  0.78547693  0.14654466     0.81400
N980        N  0.63835819  0.76338653  0.18748168    -0.79300
C981        C  0.66045154  0.76432044  0.22841479     0.81500
N982        N  0.68336326  0.78733423  0.22838558    -0.81000
C983        C  0.81993017  0.80937975  0.18746646     0.79000
N984        N  0.82092835  0.78732953  0.22837681    -0.79300
C985        C  0.84383935  0.76431548  0.22840128     0.81400
N986        N  0.86593057  0.76338254  0.18746561    -0.79300
C987        C  0.86499552  0.78547400  0.14652993     0.81500
N988        N  0.84197979  0.80838336  0.14655575    -0.81000
O989        O  0.53408713  0.90948276  0.01778273    -0.73000
O990        O  0.97020352  0.84485456  0.01778515    -0.73200
O991        O  0.97020498  0.90948478  0.01778449    -0.73100
O992        O  0.53408561  0.84485267  0.01778551    -0.73100
O993        O  0.53445890  0.84522828  0.10716620    -0.73100
O994        O  0.96983332  0.90911446  0.10716572    -0.73100
O995        O  0.96983030  0.84522997  0.10716639    -0.73000
O996        O  0.53446185  0.90911249  0.10716390    -0.73200
V997        V  0.50214522  0.87716871  0.01952630     1.35200
V998        V  0.50214603  0.87717119  0.10542406     1.35200
C999        C  0.54516801  0.92019030  0.06247241     0.76200
C1000       C  0.95912384  0.83414924  0.06247557     0.76300
C1001       C  0.95912650  0.92019294  0.06247534     0.76200
C1002       C  0.54516485  0.83414702  0.06247611     0.76100
C1003       C  0.56993269  0.94495356  0.06246990     0.79000
N1004       N  0.57092947  0.96700224  0.02155750    -0.79300
C1005       C  0.59384102  0.99001595  0.02152823     0.81400
N1006       N  0.61593434  0.99094986  0.06246131    -0.79300
C1007       C  0.61500104  0.96885952  0.10339857     0.83100
N1008       N  0.59198453  0.94595064  0.10337795    -0.81000
C1009       C  0.56992828  0.80938292  0.06247843     0.79000
N1010       N  0.57092699  0.78733260  0.02156574    -0.79300
C1011       C  0.59383721  0.76431771  0.02154173     0.81400
N1012       N  0.61592703  0.76338398  0.06248000    -0.79300
C1013       C  0.61499141  0.78547553  0.10341814     0.81500
N1014       N  0.59197660  0.80838589  0.10339167    -0.81000
C1015       C  0.93436294  0.94495689  0.06247597     0.79000
N1016       N  0.93336466  0.96700677  0.02156607    -0.79300
C1017       C  0.91045370  0.99002097  0.02154138     0.81400
N1018       N  0.88836240  0.99095404  0.06247714    -0.79300
C1019       C  0.88929749  0.96886270  0.10341237     0.81500
N1020       N  0.91231328  0.94595340  0.10338695    -0.81000
C1021       C  0.93436073  0.80938450  0.06247355     0.79000
N1022       N  0.91231062  0.80838625  0.10338344    -0.79300
C1023       C  0.88929598  0.78547524  0.10340426     0.81400
N1024       N  0.88836272  0.76338404  0.06246530    -0.79300
C1025       C  0.91045450  0.76431907  0.02153071     0.81500
N1026       N  0.93336402  0.78733491  0.02155985    -0.81000
O1027       O  0.53446000  0.59522237  0.39277643    -0.73000
O1028       O  0.96983410  0.65910840  0.39277503    -0.73200
O1029       O  0.53446253  0.65910685  0.39277608    -0.73100
O1030       O  0.96983158  0.59522405  0.39277777    -0.73100
O1031       O  0.97020519  0.59485386  0.48215841    -0.73100
O1032       O  0.53408969  0.65948171  0.48215721    -0.73100
O1033       O  0.97020748  0.65948411  0.48215624    -0.73000
O1034       O  0.53408746  0.59485141  0.48215757    -0.73200
V1035       V  0.50214697  0.62716537  0.39451802     1.35200
V1036       V  0.50214733  0.62716764  0.48041581     1.35200
C1037       C  0.54516641  0.58414354  0.43746670     0.76200
C1038       C  0.95912828  0.67018973  0.43746496     0.76300
C1039       C  0.54516920  0.67018741  0.43746690     0.76200
C1040       C  0.95912496  0.58414620  0.43746874     0.76100
C1041       C  0.56993257  0.69495174  0.43746981     0.79000
N1042       N  0.57092901  0.71700139  0.47838347    -0.79300
C1043       C  0.59383868  0.74001704  0.47841300     0.81400
N1044       N  0.61593037  0.74095214  0.43747813    -0.79300
C1045       C  0.61499721  0.71886092  0.39653927     0.81500
N1046       N  0.59198276  0.69595001  0.39655997    -0.81000
C1047       C  0.56993006  0.55937972  0.43746655     0.79000
N1048       N  0.57092857  0.53733015  0.47837680    -0.79300
C1049       C  0.59383941  0.51431583  0.47840169     0.81400
N1050       N  0.61593053  0.51338265  0.43746576    -0.79300
C1051       C  0.61499524  0.53547378  0.39653020     0.81500
N1052       N  0.59197958  0.55838315  0.39655537    -0.81000
C1053       C  0.93436030  0.55938293  0.43747181     0.79000
N1054       N  0.91230865  0.55838541  0.39656366    -0.79300
C1055       C  0.88929193  0.53547648  0.39654375     0.81400
N1056       N  0.88835840  0.51338650  0.43748173    -0.79300
C1057       C  0.91045194  0.51432060  0.47841444     0.81500
N1058       N  0.93336357  0.53733442  0.47838446    -0.81000
C1059       C  0.93436530  0.69495422  0.43746405     0.79000
N1060       N  0.93336643  0.71700407  0.47837683    -0.79300
C1061       C  0.91045599  0.74001886  0.47840202     0.81400
N1062       N  0.88836579  0.74095248  0.43746366    -0.79300
C1063       C  0.88930138  0.71886112  0.39652564     0.81500
N1064       N  0.91231647  0.69595106  0.39655078    -0.81000
C1065       C  0.68436043  0.55938426  0.81247342     0.79000
N1066       N  0.66231030  0.55838615  0.85338306    -0.79300
C1067       C  0.63929572  0.53547522  0.85340373     0.81400
N1068       N  0.63836247  0.51338402  0.81246492    -0.79300
C1069       C  0.66045420  0.51431894  0.77153042     0.81500
N1070       N  0.68336377  0.53733467  0.77155972    -0.81000
O1071       O  0.72020336  0.59485415  0.76778547    -0.73000
O1072       O  0.78408712  0.65948235  0.76778430    -0.73200
O1073       O  0.78408569  0.59485219  0.76778660    -0.73100
O1074       O  0.72020491  0.65948447  0.76778481    -0.73100
O1075       O  0.71983305  0.65911406  0.85716553    -0.73100
O1076       O  0.78445850  0.59522757  0.85716772    -0.73100
O1077       O  0.78446164  0.65911197  0.85716504    -0.73000
O1078       O  0.71983009  0.59522972  0.85716666    -0.73200
V1079       V  0.75214530  0.62716842  0.76952704     1.35200
V1080       V  0.75214574  0.62717085  0.85542471     1.35200
C1081       C  0.70912368  0.58414882  0.81247586     0.76200
C1082       C  0.79516768  0.67019002  0.81247390     0.76300
C1083       C  0.79516455  0.58414630  0.81247777     0.76200
C1084       C  0.70912635  0.67019261  0.81247525     0.76100
C1085       C  0.81992761  0.55938199  0.81247885     0.79000
N1086       N  0.82092632  0.53733202  0.77156621    -0.79300
C1087       C  0.84383671  0.51431739  0.77154119     0.81400
N1088       N  0.86592690  0.51338369  0.81247945    -0.79300
C1089       C  0.86499127  0.53547500  0.85341757     0.81500
N1090       N  0.84197623  0.55838500  0.85339223    -0.81000
C1091       C  0.68436268  0.69495618  0.81247634     0.79000
N1092       N  0.66231328  0.69595285  0.85338741    -0.79300
C1093       C  0.63929754  0.71886223  0.85341304     0.81400
N1094       N  0.63836225  0.74095365  0.81247757    -0.79300
C1095       C  0.66045329  0.74002037  0.77154163     0.81500
N1096       N  0.68336422  0.71700603  0.77156598    -0.81000
C1097       C  0.81993243  0.69495330  0.81247084     0.79000
N1098       N  0.82092919  0.71700170  0.77155833    -0.79300
C1099       C  0.84384087  0.74001552  0.77152843     0.81400
N1100       N  0.86593435  0.74094961  0.81246140    -0.79300
C1101       C  0.86500081  0.71885978  0.85339921     0.81500
N1102       N  0.84198427  0.69595075  0.85337887    -0.81000
C1103       C  0.68436480  0.94495369  0.68746450     0.79000
N1104       N  0.66231629  0.94595074  0.64655090    -0.79300
C1105       C  0.63930151  0.96886105  0.64652496     0.81400
N1106       N  0.63836578  0.99095229  0.68746311    -0.79300
C1107       C  0.66045573  0.99001851  0.72840166     0.81500
N1108       N  0.68336607  0.96700377  0.72837702    -0.81000
O1109       O  0.72020536  0.84485393  0.73215994    -0.73000
O1110       O  0.78408964  0.90948165  0.73215729    -0.73200
O1111       O  0.72020760  0.90948412  0.73215674    -0.73100
O1112       O  0.78408765  0.84485145  0.73215834    -0.73100
O1113       O  0.78445977  0.84522211  0.64277717    -0.73100
O1114       O  0.71983357  0.90910788  0.64277559    -0.73100
O1115       O  0.78446221  0.90910663  0.64277617    -0.73000
O1116       O  0.71983113  0.84522353  0.64277875    -0.73200
V1117       V  0.75214756  0.87716769  0.73041634     1.35200
V1118       V  0.75214672  0.87716504  0.64451848     1.35200
C1119       C  0.70912482  0.83414610  0.68747035     0.76200
C1120       C  0.79516910  0.92018715  0.68746694     0.76300
C1121       C  0.70912796  0.92018940  0.68746567     0.76200
C1122       C  0.79516644  0.83414352  0.68746739     0.76100
C1123       C  0.81993218  0.94495202  0.68746860     0.79000
N1124       N  0.84198231  0.94595010  0.64655902    -0.79300
C1125       C  0.86499696  0.96886110  0.64653826     0.81400
N1126       N  0.86593033  0.99095214  0.68747737    -0.79300
C1127       C  0.84383863  0.99001713  0.72841191     0.81500
N1128       N  0.82092890  0.96700162  0.72838235    -0.81000
C1129       C  0.68436008  0.80938308  0.68747360     0.79000
N1130       N  0.66230834  0.80838586  0.64656557    -0.79300
C1131       C  0.63929172  0.78547696  0.64654474     0.81400
N1132       N  0.63835824  0.76338651  0.68748182    -0.79300
C1133       C  0.66045159  0.76432052  0.72841507     0.81500
N1134       N  0.68336332  0.78733429  0.72838565    -0.81000
C1135       C  0.81992997  0.80937945  0.68746733     0.79000
N1136       N  0.82092829  0.78732966  0.72837721    -0.79300
C1137       C  0.84383919  0.76431522  0.72840169     0.81400
N1138       N  0.86593075  0.76338244  0.68746590    -0.79300
C1139       C  0.86499555  0.78547377  0.64653073     0.81500
N1140       N  0.84197978  0.80838308  0.64655622    -0.81000
O1141       O  0.53408740  0.90948283  0.51778261    -0.73000
O1142       O  0.97020343  0.84485454  0.51778573    -0.73200
O1143       O  0.97020495  0.90948476  0.51778431    -0.73100
O1144       O  0.53408569  0.84485279  0.51778569    -0.73100
O1145       O  0.53445881  0.84522815  0.60716644    -0.73100
O1146       O  0.96983346  0.90911437  0.60716563    -0.73100
O1147       O  0.96983047  0.84523005  0.60716646    -0.73000
O1148       O  0.53446179  0.90911251  0.60716387    -0.73200
V1149       V  0.50214538  0.87716878  0.51952625     1.35200
V1150       V  0.50214610  0.87717129  0.60542401     1.35200
C1151       C  0.54516800  0.92019033  0.56247243     0.76200
C1152       C  0.95912394  0.83414909  0.56247590     0.76300
C1153       C  0.95912651  0.92019285  0.56247523     0.76200
C1154       C  0.54516494  0.83414712  0.56247640     0.76100
C1155       C  0.56993268  0.94495333  0.56246955     0.79000
N1156       N  0.57092929  0.96700216  0.52155766    -0.79300
C1157       C  0.59384103  0.99001593  0.52152809     0.81400
N1158       N  0.61593450  0.99095000  0.56246122    -0.79300
C1159       C  0.61500108  0.96885958  0.60339830     0.83100
N1160       N  0.59198440  0.94595073  0.60337780    -0.81000
C1161       C  0.56992813  0.80938282  0.56247814     0.79000
N1162       N  0.57092696  0.78733260  0.52156571    -0.79300
C1163       C  0.59383718  0.76431777  0.52154167     0.81400
N1164       N  0.61592699  0.76338402  0.56248029    -0.79300
C1165       C  0.61499133  0.78547550  0.60341813     0.81500
N1166       N  0.59197649  0.80838579  0.60339168    -0.81000
C1167       C  0.93436283  0.94495675  0.56247623     0.79000
N1168       N  0.93336466  0.96700672  0.52156604    -0.79300
C1169       C  0.91045367  0.99002098  0.52154147     0.81400
N1170       N  0.88836238  0.99095410  0.56247718    -0.79300
C1171       C  0.88929740  0.96886265  0.60341257     0.81500
N1172       N  0.91231318  0.94595336  0.60338708    -0.81000
C1173       C  0.93436070  0.80938451  0.56247354     0.79000
N1174       N  0.91231062  0.80838632  0.60338346    -0.79300
C1175       C  0.88929605  0.78547540  0.60340456     0.81400
N1176       N  0.88836271  0.76338423  0.56246594    -0.79300
C1177       C  0.91045434  0.76431924  0.52153091     0.81500
N1178       N  0.93336398  0.78733483  0.52156017    -0.81000
O1179       O  0.53446000  0.59522245  0.89277655    -0.73000
O1180       O  0.96983426  0.65910843  0.89277494    -0.73200
O1181       O  0.53446265  0.65910690  0.89277662    -0.73100
O1182       O  0.96983127  0.59522402  0.89277752    -0.73100
O1183       O  0.97020534  0.59485403  0.98215826    -0.73100
O1184       O  0.53408973  0.65948163  0.98215731    -0.73100
O1185       O  0.97020746  0.65948420  0.98215630    -0.73000
O1186       O  0.53408746  0.59485143  0.98215774    -0.73200
V1187       V  0.50214709  0.62716554  0.89451803     1.35200
V1188       V  0.50214749  0.62716779  0.98041573     1.35200
C1189       C  0.54516632  0.58414356  0.93746707     0.76200
C1190       C  0.95912833  0.67018973  0.93746521     0.76300
C1191       C  0.54516927  0.67018734  0.93746735     0.76200
C1192       C  0.95912505  0.58414613  0.93746849     0.76100
C1193       C  0.56993250  0.69495179  0.93747001     0.79000
N1194       N  0.57092924  0.71700150  0.97838354    -0.79300
C1195       C  0.59383886  0.74001717  0.97841265     0.81400
N1196       N  0.61593062  0.74095212  0.93747786    -0.79300
C1197       C  0.61499721  0.71886085  0.89653915     0.81500
N1198       N  0.59198263  0.69594988  0.89656026    -0.81000
C1199       C  0.56993005  0.55937998  0.93746632     0.79000
N1200       N  0.57092851  0.53733004  0.97837672    -0.79300
C1201       C  0.59383956  0.51431591  0.97840137     0.81400
N1202       N  0.61593067  0.51338264  0.93746547    -0.79300
C1203       C  0.61499521  0.53547391  0.89652970     0.81500
N1204       N  0.59197943  0.55838324  0.89655518    -0.81000
C1205       C  0.93436060  0.55938293  0.93747191     0.79000
N1206       N  0.91230875  0.55838556  0.89656363    -0.79300
C1207       C  0.88929210  0.53547674  0.89654402     0.81400
N1208       N  0.88835861  0.51338666  0.93748154    -0.79300
C1209       C  0.91045204  0.51432082  0.97841475     0.81500
N1210       N  0.93336369  0.53733456  0.97838442    -0.81000
C1211       C  0.93436505  0.69495404  0.93746373     0.79000
N1212       N  0.93336637  0.71700408  0.97837668    -0.79300
C1213       C  0.91045598  0.74001879  0.97840151     0.81400
N1214       N  0.88836574  0.74095244  0.93746378    -0.79300
C1215       C  0.88930136  0.71886124  0.89652539     0.81500
N1216       N  0.91231641  0.69595115  0.89655086    -0.81000
loop_ 
_geom_bond_atom_site_label_1 
_geom_bond_atom_site_label_2 
_geom_bond_distance 
_geom_bond_site_symmetry_2 
_ccdc_geom_bond_type 
C1            N2   1.357       .  A
C1            N6   1.357       .  A
C1           C17   1.464       .  S
N2            C3   1.357       .  A
C3            N4   1.359       .  A
C3          C139   1.460       .  S
N4            C5   1.359       .  A
C5            N6   1.357       .  A
C5          C347   1.460   1_545  S
O7           V15   1.899       .  S
O7           C17   1.264       .  A
O8           V15   1.899       .  S
O8           C18   1.264       .  A
O9           V15   1.899       .  S
O9           C19   1.264       .  A
O10          V15   1.899       .  S
O10          C20   1.264       .  A
O11          V16   1.899       .  S
O11          C20   1.264       .  A
O12          V16   1.899       .  S
O12          C19   1.264       .  A
O13          V16   1.899       .  S
O13          C18   1.264       .  A
O14          V16   1.899       .  S
O14          C17   1.264       .  A
V15          V16   2.090       .  T
C18          C33   1.464       .  S
C19          C21   1.464       .  S
C20          C27   1.464       .  S
C21          N22   1.357       .  A
C21          N26   1.357       .  A
N22          C23   1.357       .  A
C23          N24   1.359       .  A
C23         C367   1.460   1_545  S
N24          C25   1.359       .  A
C25          N26   1.357       .  A
C25         C143   1.460       .  S
C27          N28   1.357       .  A
C27          N32   1.357       .  A
N28          C29   1.357       .  A
C29          N30   1.359       .  A
C29         C133   1.460       .  S
N30          C31   1.359       .  A
C31          N32   1.357       .  A
C31          C69   1.460       .  S
C33          N34   1.357       .  A
C33          N38   1.357       .  A
N34          C35   1.357       .  A
C35          N36   1.359       .  A
C35          C73   1.460       .  S
N36          C37   1.359       .  A
C37          N38   1.357       .  A
C37         C151   1.460       .  S
C39          N40   1.357       .  A
C39          N44   1.357       .  A
C39          C57   1.464       .  S
N40          C41   1.357       .  A
C41          N42   1.359       .  A
C41          C95   1.460       .  S
N42          C43   1.359       .  A
C43          N44   1.357       .  A
C43         C309   1.460       .  S
O45          V53   1.899       .  S
O45          C55   1.264       .  A
O46          V53   1.899       .  S
O46          C56   1.264       .  A
O47          V53   1.899       .  S
O47          C57   1.264       .  A
O48          V53   1.899       .  S
O48          C58   1.264       .  A
O49          V54   1.899       .  S
O49          C58   1.264       .  A
O50          V54   1.899       .  S
O50          C57   1.264       .  A
O51          V54   1.899       .  S
O51          C56   1.264       .  A
O52          V54   1.899       .  S
O52          C55   1.264       .  A
V53          V54   2.090       .  T
C55          C65   1.464       .  S
C56          C59   1.464       .  S
C58          C71   1.464       .  S
C59          N60   1.357       .  A
C59          N64   1.357       .  A
N60          C61   1.357       .  A
C61          N62   1.359       .  A
C61         C107   1.460       .  S
N62          C63   1.359       .  A
C63          N64   1.357       .  A
C63         C327   1.460       .  S
C65          N66   1.357       .  A
C65          N70   1.357       .  A
N66          C67   1.357       .  A
C67          N68   1.359       .  A
C67         C101   1.460       .  S
N68          C69   1.359       .  A
C69          N70   1.357       .  A
C71          N72   1.357       .  A
C71          N76   1.357       .  A
N72          C73   1.357       .  A
C73          N74   1.359       .  A
N74          C75   1.359       .  A
C75          N76   1.357       .  A
C75         C111   1.460       .  S
O77          V85   1.899       .  S
O77          C87   1.264       .  A
O78         V693   1.899       .  S
O78          C88   1.264       .  A
O79         V693   1.899       .  S
O79          C89   1.264       .  A
O80          V85   1.899       .  S
O80          C90   1.264       .  A
O81          V86   1.899       .  S
O81          C90   1.264       .  A
O82         V694   1.899       .  S
O82          C89   1.264       .  A
O83         V694   1.899       .  S
O83          C88   1.264       .  A
O84          V86   1.899       .  S
O84          C87   1.264       .  A
V85         O686   1.899   1_455  S
V85         O687   1.899   1_455  S
V85          V86   2.090       .  T
V86         O690   1.899   1_455  S
V86         O691   1.899   1_455  S
C87          C91   1.464       .  S
C88         C109   1.464       .  S
C89         C103   1.464       .  S
C90          C97   1.464       .  S
C91          N92   1.357       .  A
C91          N96   1.357       .  A
N92          C93   1.357       .  A
C93          N94   1.359       .  A
C93         C593   1.460   1_554  S
N94          C95   1.359       .  A
C95          N96   1.357       .  A
C97          N98   1.357       .  A
C97         N102   1.357       .  A
N98          C99   1.357       .  A
C99         N100   1.359       .  A
C99         C283   1.460   1_554  S
N100        C101   1.359       .  A
C101        N102   1.357       .  A
C103        N104   1.357       .  A
C103        N108   1.357       .  A
N104        C105   1.357       .  A
C105        N106   1.359       .  A
C105        C601   1.460   1_554  S
N106        C107   1.359       .  A
C107        N108   1.357       .  A
C109        N110   1.357       .  A
C109        N114   1.357       .  A
N110        C111   1.357       .  A
C111        N112   1.359       .  A
N112        C113   1.359       .  A
C113        N114   1.357       .  A
C113        C301   1.460   1_554  S
O115        V123   1.899       .  S
O115        C125   1.264       .  A
O116        V731   1.899       .  S
O116        C126   1.264       .  A
O117        V123   1.899       .  S
O117        C127   1.264       .  A
O118        V731   1.899       .  S
O118        C128   1.264       .  A
O119        V732   1.899       .  S
O119        C128   1.264       .  A
O120        V124   1.899       .  S
O120        C127   1.264       .  A
O121        V732   1.899       .  S
O121        C126   1.264       .  A
O122        V124   1.899       .  S
O122        C125   1.264       .  A
V123        O724   1.899   1_455  S
V123        O726   1.899   1_455  S
V123        V124   2.090       .  T
V124        O727   1.899   1_455  S
V124        O729   1.899   1_455  S
C125        C135   1.464       .  S
C126        C147   1.464       .  S
C127        C129   1.464       .  S
C128        C141   1.464       .  S
C129        N130   1.357       .  A
C129        N134   1.357       .  A
N130        C131   1.357       .  A
C131        N132   1.359       .  A
C131        C251   1.460       .  S
N132        C133   1.359       .  A
C133        N134   1.357       .  A
C135        N136   1.357       .  A
C135        N140   1.357       .  A
N136        C137   1.357       .  A
C137        N138   1.359       .  A
C137        C549   1.460   1_545  S
N138        C139   1.359       .  A
C139        N140   1.357       .  A
C141        N142   1.357       .  A
C141        N146   1.357       .  A
N142        C143   1.357       .  A
C143        N144   1.359       .  A
N144        C145   1.359       .  A
C145        N146   1.357       .  A
C145        C561   1.460   1_545  S
C147        N148   1.357       .  A
C147        N152   1.357       .  A
N148        C149   1.357       .  A
C149        N150   1.359       .  A
C149        C265   1.460       .  S
N150        C151   1.359       .  A
C151        N152   1.357       .  A
C153        N154   1.357       .  A
C153        N158   1.357       .  A
C153        C169   1.464       .  S
N154        C155   1.357       .  A
C155        N156   1.359       .  A
C155        C291   1.460       .  S
N156        C157   1.359       .  A
C157        N158   1.357       .  A
C157        C499   1.460   1_545  S
O159        V167   1.899       .  S
O159        C169   1.264       .  A
O160        V167   1.899       .  S
O160        C170   1.264       .  A
O161        V167   1.899       .  S
O161        C171   1.264       .  A
O162        V167   1.899       .  S
O162        C172   1.264       .  A
O163        V168   1.899       .  S
O163        C172   1.264       .  A
O164        V168   1.899       .  S
O164        C171   1.264       .  A
O165        V168   1.899       .  S
O165        C170   1.264       .  A
O166        V168   1.899       .  S
O166        C169   1.264       .  A
V167        V168   2.090       .  T
C170        C185   1.464       .  S
C171        C173   1.464       .  S
C172        C179   1.464       .  S
C173        N174   1.357       .  A
C173        N178   1.357       .  A
N174        C175   1.357       .  A
C175        N176   1.359       .  A
C175        C519   1.460   1_545  S
N176        C177   1.359       .  A
C177        N178   1.357       .  A
C177        C295   1.460       .  S
C179        N180   1.357       .  A
C179        N184   1.357       .  A
N180        C181   1.357       .  A
C181        N182   1.359       .  A
C181        C285   1.460       .  S
N182        C183   1.359       .  A
C183        N184   1.357       .  A
C183        C221   1.460       .  S
C185        N186   1.357       .  A
C185        N190   1.357       .  A
N186        C187   1.357       .  A
C187        N188   1.359       .  A
C187        C225   1.460       .  S
N188        C189   1.359       .  A
C189        N190   1.357       .  A
C189        C303   1.460       .  S
C191        N192   1.357       .  A
C191        N196   1.357       .  A
C191        C209   1.464       .  S
N192        C193   1.357       .  A
C193        N194   1.359       .  A
C193        C247   1.460       .  S
N194        C195   1.359       .  A
C195        N196   1.357       .  A
C195        C461   1.460       .  S
O197        V205   1.899       .  S
O197        C207   1.264       .  A
O198        V205   1.899       .  S
O198        C208   1.264       .  A
O199        V205   1.899       .  S
O199        C209   1.264       .  A
O200        V205   1.899       .  S
O200        C210   1.264       .  A
O201        V206   1.899       .  S
O201        C210   1.264       .  A
O202        V206   1.899       .  S
O202        C209   1.264       .  A
O203        V206   1.899       .  S
O203        C208   1.264       .  A
O204        V206   1.899       .  S
O204        C207   1.264       .  A
V205        V206   2.090       .  T
C207        C217   1.464       .  S
C208        C211   1.464       .  S
C210        C223   1.464       .  S
C211        N212   1.357       .  A
C211        N216   1.357       .  A
N212        C213   1.357       .  A
C213        N214   1.359       .  A
C213        C259   1.460       .  S
N214        C215   1.359       .  A
C215        N216   1.357       .  A
C215        C479   1.460       .  S
C217        N218   1.357       .  A
C217        N222   1.357       .  A
N218        C219   1.357       .  A
C219        N220   1.359       .  A
C219        C253   1.460       .  S
N220        C221   1.359       .  A
C221        N222   1.357       .  A
C223        N224   1.357       .  A
C223        N228   1.357       .  A
N224        C225   1.357       .  A
C225        N226   1.359       .  A
N226        C227   1.359       .  A
C227        N228   1.357       .  A
C227        C263   1.460       .  S
O229        V237   1.899       .  S
O229        C239   1.264       .  A
O230        V845   1.899       .  S
O230        C240   1.264       .  A
O231        V845   1.899       .  S
O231        C241   1.264       .  A
O232        V237   1.899       .  S
O232        C242   1.264       .  A
O233        V238   1.899       .  S
O233        C242   1.264       .  A
O234        V846   1.899       .  S
O234        C241   1.264       .  A
O235        V846   1.899       .  S
O235        C240   1.264       .  A
O236        V238   1.899       .  S
O236        C239   1.264       .  A
V237        O838   1.899   1_455  S
V237        O839   1.899   1_455  S
V237        V238   2.090       .  T
V238        O842   1.899   1_455  S
V238        O843   1.899   1_455  S
C239        C243   1.464       .  S
C240        C261   1.464       .  S
C241        C255   1.464       .  S
C242        C249   1.464       .  S
C243        N244   1.357       .  A
C243        N248   1.357       .  A
N244        C245   1.357       .  A
C245        N246   1.359       .  A
C245        C441   1.460       .  S
N246        C247   1.359       .  A
C247        N248   1.357       .  A
C249        N250   1.357       .  A
C249        N254   1.357       .  A
N250        C251   1.357       .  A
C251        N252   1.359       .  A
N252        C253   1.359       .  A
C253        N254   1.357       .  A
C255        N256   1.357       .  A
C255        N260   1.357       .  A
N256        C257   1.357       .  A
C257        N258   1.359       .  A
C257        C449   1.460       .  S
N258        C259   1.359       .  A
C259        N260   1.357       .  A
C261        N262   1.357       .  A
C261        N266   1.357       .  A
N262        C263   1.357       .  A
C263        N264   1.359       .  A
N264        C265   1.359       .  A
C265        N266   1.357       .  A
O267        V275   1.899       .  S
O267        C277   1.264       .  A
O268        V883   1.899       .  S
O268        C278   1.264       .  A
O269        V275   1.899       .  S
O269        C279   1.264       .  A
O270        V883   1.899       .  S
O270        C280   1.264       .  A
O271        V884   1.899       .  S
O271        C280   1.264       .  A
O272        V276   1.899       .  S
O272        C279   1.264       .  A
O273        V884   1.899       .  S
O273        C278   1.264       .  A
O274        V276   1.899       .  S
O274        C277   1.264       .  A
V275        O876   1.899   1_455  S
V275        O878   1.899   1_455  S
V275        V276   2.090       .  T
V276        O879   1.899   1_455  S
V276        O881   1.899   1_455  S
C277        C287   1.464       .  S
C278        C299   1.464       .  S
C279        C281   1.464       .  S
C280        C293   1.464       .  S
C281        N282   1.357       .  A
C281        N286   1.357       .  A
N282        C283   1.357       .  A
C283        N284   1.359       .  A
N284        C285   1.359       .  A
C285        N286   1.357       .  A
C287        N288   1.357       .  A
C287        N292   1.357       .  A
N288        C289   1.357       .  A
C289        N290   1.359       .  A
C289        C397   1.460   1_546  S
N290        C291   1.359       .  A
C291        N292   1.357       .  A
C293        N294   1.357       .  A
C293        N298   1.357       .  A
N294        C295   1.357       .  A
C295        N296   1.359       .  A
N296        C297   1.359       .  A
C297        N298   1.357       .  A
C297        C409   1.460   1_546  S
C299        N300   1.357       .  A
C299        N304   1.357       .  A
N300        C301   1.357       .  A
C301        N302   1.359       .  A
N302        C303   1.359       .  A
C303        N304   1.357       .  A
C305        N306   1.357       .  A
C305        N310   1.357       .  A
C305        C321   1.464       .  S
N306        C307   1.357       .  A
C307        N308   1.359       .  A
C307        C443   1.460       .  S
N308        C309   1.359       .  A
C309        N310   1.357       .  A
O311        V319   1.899       .  S
O311        C321   1.264       .  A
O312        V319   1.899       .  S
O312        C322   1.264       .  A
O313        V319   1.899       .  S
O313        C323   1.264       .  A
O314        V319   1.899       .  S
O314        C324   1.264       .  A
O315        V320   1.899       .  S
O315        C324   1.264       .  A
O316        V320   1.899       .  S
O316        C323   1.264       .  A
O317        V320   1.899       .  S
O317        C322   1.264       .  A
O318        V320   1.899       .  S
O318        C321   1.264       .  A
V319        V320   2.090       .  T
C322        C337   1.464       .  S
C323        C325   1.464       .  S
C324        C331   1.464       .  S
C325        N326   1.357       .  A
C325        N330   1.357       .  A
N326        C327   1.357       .  A
C327        N328   1.359       .  A
N328        C329   1.359       .  A
C329        N330   1.357       .  A
C329        C447   1.460       .  S
C331        N332   1.357       .  A
C331        N336   1.357       .  A
N332        C333   1.357       .  A
C333        N334   1.359       .  A
C333        C437   1.460       .  S
N334        C335   1.359       .  A
C335        N336   1.357       .  A
C335        C373   1.460       .  S
C337        N338   1.357       .  A
C337        N342   1.357       .  A
N338        C339   1.357       .  A
C339        N340   1.359       .  A
C339        C377   1.460       .  S
N340        C341   1.359       .  A
C341        N342   1.357       .  A
C341        C455   1.460       .  S
C343        N344   1.357       .  A
C343        N348   1.357       .  A
C343        C361   1.464       .  S
N344        C345   1.357       .  A
C345        N346   1.359       .  A
C345        C399   1.460       .  S
N346        C347   1.359       .  A
C347        N348   1.357       .  A
O349        V357   1.899       .  S
O349        C359   1.264       .  A
O350        V357   1.899       .  S
O350        C360   1.264       .  A
O351        V357   1.899       .  S
O351        C361   1.264       .  A
O352        V357   1.899       .  S
O352        C362   1.264       .  A
O353        V358   1.899       .  S
O353        C362   1.264       .  A
O354        V358   1.899       .  S
O354        C361   1.264       .  A
O355        V358   1.899       .  S
O355        C360   1.264       .  A
O356        V358   1.899       .  S
O356        C359   1.264       .  A
V357        V358   2.090       .  T
C359        C369   1.464       .  S
C360        C363   1.464       .  S
C362        C375   1.464       .  S
C363        N364   1.357       .  A
C363        N368   1.357       .  A
N364        C365   1.357       .  A
C365        N366   1.359       .  A
C365        C411   1.460       .  S
N366        C367   1.359       .  A
C367        N368   1.357       .  A
C369        N370   1.357       .  A
C369        N374   1.357       .  A
N370        C371   1.357       .  A
C371        N372   1.359       .  A
C371        C405   1.460       .  S
N372        C373   1.359       .  A
C373        N374   1.357       .  A
C375        N376   1.357       .  A
C375        N380   1.357       .  A
N376        C377   1.357       .  A
C377        N378   1.359       .  A
N378        C379   1.359       .  A
C379        N380   1.357       .  A
C379        C415   1.460       .  S
O381        V389   1.899       .  S
O381        C391   1.264       .  A
O382        V997   1.899       .  S
O382        C392   1.264       .  A
O383        V997   1.899       .  S
O383        C393   1.264       .  A
O384        V389   1.899       .  S
O384        C394   1.264       .  A
O385        V390   1.899       .  S
O385        C394   1.264       .  A
O386        V998   1.899       .  S
O386        C393   1.264       .  A
O387        V998   1.899       .  S
O387        C392   1.264       .  A
O388        V390   1.899       .  S
O388        C391   1.264       .  A
V389        O990   1.899   1_455  S
V389        O991   1.899   1_455  S
V389        V390   2.090       .  T
V390        O994   1.899   1_455  S
V390        O995   1.899   1_455  S
C391        C395   1.464       .  S
C392        C413   1.464       .  S
C393        C407   1.464       .  S
C394        C401   1.464       .  S
C395        N396   1.357       .  A
C395        N400   1.357       .  A
N396        C397   1.357       .  A
C397        N398   1.359       .  A
N398        C399   1.359       .  A
C399        N400   1.357       .  A
C401        N402   1.357       .  A
C401        N406   1.357       .  A
N402        C403   1.357       .  A
C403        N404   1.359       .  A
C403        C587   1.460   1_554  S
N404        C405   1.359       .  A
C405        N406   1.357       .  A
C407        N408   1.357       .  A
C407        N412   1.357       .  A
N408        C409   1.357       .  A
C409        N410   1.359       .  A
N410        C411   1.359       .  A
C411        N412   1.357       .  A
C413        N414   1.357       .  A
C413        N418   1.357       .  A
N414        C415   1.357       .  A
C415        N416   1.359       .  A
N416        C417   1.359       .  A
C417        N418   1.357       .  A
C417        C605   1.460   1_554  S
O419        V427   1.899       .  S
O419        C429   1.264       .  A
O420       V1035   1.899       .  S
O420        C430   1.264       .  A
O421        V427   1.899       .  S
O421        C431   1.264       .  A
O422       V1035   1.899       .  S
O422        C432   1.264       .  A
O423       V1036   1.899       .  S
O423        C432   1.264       .  A
O424        V428   1.899       .  S
O424        C431   1.264       .  A
O425       V1036   1.899       .  S
O425        C430   1.264       .  A
O426        V428   1.899       .  S
O426        C429   1.264       .  A
V427       O1028   1.899   1_455  S
V427       O1030   1.899   1_455  S
V427        V428   2.090       .  T
V428       O1031   1.899   1_455  S
V428       O1033   1.899   1_455  S
C429        C439   1.464       .  S
C430        C451   1.464       .  S
C431        C433   1.464       .  S
C432        C445   1.464       .  S
C433        N434   1.357       .  A
C433        N438   1.357       .  A
N434        C435   1.357       .  A
C435        N436   1.359       .  A
C435        C555   1.460       .  S
N436        C437   1.359       .  A
C437        N438   1.357       .  A
C439        N440   1.357       .  A
C439        N444   1.357       .  A
N440        C441   1.357       .  A
C441        N442   1.359       .  A
N442        C443   1.359       .  A
C443        N444   1.357       .  A
C445        N446   1.357       .  A
C445        N450   1.357       .  A
N446        C447   1.357       .  A
C447        N448   1.359       .  A
N448        C449   1.359       .  A
C449        N450   1.357       .  A
C451        N452   1.357       .  A
C451        N456   1.357       .  A
N452        C453   1.357       .  A
C453        N454   1.359       .  A
C453        C569   1.460       .  S
N454        C455   1.359       .  A
C455        N456   1.357       .  A
C457        N458   1.357       .  A
C457        N462   1.357       .  A
C457        C473   1.464       .  S
N458        C459   1.357       .  A
C459        N460   1.359       .  A
C459        C595   1.460       .  S
N460        C461   1.359       .  A
C461        N462   1.357       .  A
O463        V471   1.899       .  S
O463        C473   1.264       .  A
O464        V471   1.899       .  S
O464        C474   1.264       .  A
O465        V471   1.899       .  S
O465        C475   1.264       .  A
O466        V471   1.899       .  S
O466        C476   1.264       .  A
O467        V472   1.899       .  S
O467        C476   1.264       .  A
O468        V472   1.899       .  S
O468        C475   1.264       .  A
O469        V472   1.899       .  S
O469        C474   1.264       .  A
O470        V472   1.899       .  S
O470        C473   1.264       .  A
V471        V472   2.090       .  T
C474        C489   1.464       .  S
C475        C477   1.464       .  S
C476        C483   1.464       .  S
C477        N478   1.357       .  A
C477        N482   1.357       .  A
N478        C479   1.357       .  A
C479        N480   1.359       .  A
N480        C481   1.359       .  A
C481        N482   1.357       .  A
C481        C599   1.460       .  S
C483        N484   1.357       .  A
C483        N488   1.357       .  A
N484        C485   1.357       .  A
C485        N486   1.359       .  A
C485        C589   1.460       .  S
N486        C487   1.359       .  A
C487        N488   1.357       .  A
C487        C525   1.460       .  S
C489        N490   1.357       .  A
C489        N494   1.357       .  A
N490        C491   1.357       .  A
C491        N492   1.359       .  A
C491        C529   1.460       .  S
N492        C493   1.359       .  A
C493        N494   1.357       .  A
C493        C607   1.460       .  S
C495        N496   1.357       .  A
C495        N500   1.357       .  A
C495        C513   1.464       .  S
N496        C497   1.357       .  A
C497        N498   1.359       .  A
C497        C551   1.460       .  S
N498        C499   1.359       .  A
C499        N500   1.357       .  A
O501        V509   1.899       .  S
O501        C511   1.264       .  A
O502        V509   1.899       .  S
O502        C512   1.264       .  A
O503        V509   1.899       .  S
O503        C513   1.264       .  A
O504        V509   1.899       .  S
O504        C514   1.264       .  A
O505        V510   1.899       .  S
O505        C514   1.264       .  A
O506        V510   1.899       .  S
O506        C513   1.264       .  A
O507        V510   1.899       .  S
O507        C512   1.264       .  A
O508        V510   1.899       .  S
O508        C511   1.264       .  A
V509        V510   2.090       .  T
C511        C521   1.464       .  S
C512        C515   1.464       .  S
C514        C527   1.464       .  S
C515        N516   1.357       .  A
C515        N520   1.357       .  A
N516        C517   1.357       .  A
C517        N518   1.359       .  A
C517        C563   1.460       .  S
N518        C519   1.359       .  A
C519        N520   1.357       .  A
C521        N522   1.357       .  A
C521        N526   1.357       .  A
N522        C523   1.357       .  A
C523        N524   1.359       .  A
C523        C557   1.460       .  S
N524        C525   1.359       .  A
C525        N526   1.357       .  A
C527        N528   1.357       .  A
C527        N532   1.357       .  A
N528        C529   1.357       .  A
C529        N530   1.359       .  A
N530        C531   1.359       .  A
C531        N532   1.357       .  A
C531        C567   1.460       .  S
O533        V541   1.899       .  S
O533        C543   1.264       .  A
O534       V1149   1.899       .  S
O534        C544   1.264       .  A
O535       V1149   1.899       .  S
O535        C545   1.264       .  A
O536        V541   1.899       .  S
O536        C546   1.264       .  A
O537        V542   1.899       .  S
O537        C546   1.264       .  A
O538       V1150   1.899       .  S
O538        C545   1.264       .  A
O539       V1150   1.899       .  S
O539        C544   1.264       .  A
O540        V542   1.899       .  S
O540        C543   1.264       .  A
V541       O1142   1.899   1_455  S
V541       O1143   1.899   1_455  S
V541        V542   2.090       .  T
V542       O1146   1.899   1_455  S
V542       O1147   1.899   1_455  S
C543        C547   1.464       .  S
C544        C565   1.464       .  S
C545        C559   1.464       .  S
C546        C553   1.464       .  S
C547        N548   1.357       .  A
C547        N552   1.357       .  A
N548        C549   1.357       .  A
C549        N550   1.359       .  A
N550        C551   1.359       .  A
C551        N552   1.357       .  A
C553        N554   1.357       .  A
C553        N558   1.357       .  A
N554        C555   1.357       .  A
C555        N556   1.359       .  A
N556        C557   1.359       .  A
C557        N558   1.357       .  A
C559        N560   1.357       .  A
C559        N564   1.357       .  A
N560        C561   1.357       .  A
C561        N562   1.359       .  A
N562        C563   1.359       .  A
C563        N564   1.357       .  A
C565        N566   1.357       .  A
C565        N570   1.357       .  A
N566        C567   1.357       .  A
C567        N568   1.359       .  A
N568        C569   1.359       .  A
C569        N570   1.357       .  A
O571        V579   1.899       .  S
O571        C581   1.264       .  A
O572       V1187   1.899       .  S
O572        C582   1.264       .  A
O573        V579   1.899       .  S
O573        C583   1.264       .  A
O574       V1187   1.899       .  S
O574        C584   1.264       .  A
O575       V1188   1.899       .  S
O575        C584   1.264       .  A
O576        V580   1.899       .  S
O576        C583   1.264       .  A
O577       V1188   1.899       .  S
O577        C582   1.264       .  A
O578        V580   1.899       .  S
O578        C581   1.264       .  A
V579       O1180   1.899   1_455  S
V579       O1182   1.899   1_455  S
V579        V580   2.090       .  T
V580       O1183   1.899   1_455  S
V580       O1185   1.899   1_455  S
C581        C591   1.464       .  S
C582        C603   1.464       .  S
C583        C585   1.464       .  S
C584        C597   1.464       .  S
C585        N586   1.357       .  A
C585        N590   1.357       .  A
N586        C587   1.357       .  A
C587        N588   1.359       .  A
N588        C589   1.359       .  A
C589        N590   1.357       .  A
C591        N592   1.357       .  A
C591        N596   1.357       .  A
N592        C593   1.357       .  A
C593        N594   1.359       .  A
N594        C595   1.359       .  A
C595        N596   1.357       .  A
C597        N598   1.357       .  A
C597        N602   1.357       .  A
N598        C599   1.357       .  A
C599        N600   1.359       .  A
N600        C601   1.359       .  A
C601        N602   1.357       .  A
C603        N604   1.357       .  A
C603        N608   1.357       .  A
N604        C605   1.357       .  A
C605        N606   1.359       .  A
N606        C607   1.359       .  A
C607        N608   1.357       .  A
C609        N610   1.357       .  A
C609        N614   1.357       .  A
C609        C625   1.464       .  S
N610        C611   1.357       .  A
C611        N612   1.359       .  A
C611        C747   1.460       .  S
N612        C613   1.359       .  A
C613        N614   1.357       .  A
C613        C955   1.460   1_545  S
O615        V623   1.899       .  S
O615        C625   1.264       .  A
O616        V623   1.899       .  S
O616        C626   1.264       .  A
O617        V623   1.899       .  S
O617        C627   1.264       .  A
O618        V623   1.899       .  S
O618        C628   1.264       .  A
O619        V624   1.899       .  S
O619        C628   1.264       .  A
O620        V624   1.899       .  S
O620        C627   1.264       .  A
O621        V624   1.899       .  S
O621        C626   1.264       .  A
O622        V624   1.899       .  S
O622        C625   1.264       .  A
V623        V624   2.090       .  T
C626        C641   1.464       .  S
C627        C629   1.464       .  S
C628        C635   1.464       .  S
C629        N630   1.357       .  A
C629        N634   1.357       .  A
N630        C631   1.357       .  A
C631        N632   1.359       .  A
C631        C975   1.460   1_545  S
N632        C633   1.359       .  A
C633        N634   1.357       .  A
C633        C751   1.460       .  S
C635        N636   1.357       .  A
C635        N640   1.357       .  A
N636        C637   1.357       .  A
C637        N638   1.359       .  A
C637        C741   1.460       .  S
N638        C639   1.359       .  A
C639        N640   1.357       .  A
C639        C677   1.460       .  S
C641        N642   1.357       .  A
C641        N646   1.357       .  A
N642        C643   1.357       .  A
C643        N644   1.359       .  A
C643        C681   1.460       .  S
N644        C645   1.359       .  A
C645        N646   1.357       .  A
C645        C759   1.460       .  S
C647        N648   1.357       .  A
C647        N652   1.357       .  A
C647        C665   1.464       .  S
N648        C649   1.357       .  A
C649        N650   1.359       .  A
C649        C703   1.460       .  S
N650        C651   1.359       .  A
C651        N652   1.357       .  A
C651        C917   1.460       .  S
O653        V661   1.899       .  S
O653        C663   1.264       .  A
O654        V661   1.899       .  S
O654        C664   1.264       .  A
O655        V661   1.899       .  S
O655        C665   1.264       .  A
O656        V661   1.899       .  S
O656        C666   1.264       .  A
O657        V662   1.899       .  S
O657        C666   1.264       .  A
O658        V662   1.899       .  S
O658        C665   1.264       .  A
O659        V662   1.899       .  S
O659        C664   1.264       .  A
O660        V662   1.899       .  S
O660        C663   1.264       .  A
V661        V662   2.090       .  T
C663        C673   1.464       .  S
C664        C667   1.464       .  S
C666        C679   1.464       .  S
C667        N668   1.357       .  A
C667        N672   1.357       .  A
N668        C669   1.357       .  A
C669        N670   1.359       .  A
C669        C715   1.460       .  S
N670        C671   1.359       .  A
C671        N672   1.357       .  A
C671        C935   1.460       .  S
C673        N674   1.357       .  A
C673        N678   1.357       .  A
N674        C675   1.357       .  A
C675        N676   1.359       .  A
C675        C709   1.460       .  S
N676        C677   1.359       .  A
C677        N678   1.357       .  A
C679        N680   1.357       .  A
C679        N684   1.357       .  A
N680        C681   1.357       .  A
C681        N682   1.359       .  A
N682        C683   1.359       .  A
C683        N684   1.357       .  A
C683        C719   1.460       .  S
O685        V693   1.899       .  S
O685        C695   1.264       .  A
O686        C696   1.264       .  A
O687        C697   1.264       .  A
O688        V693   1.899       .  S
O688        C698   1.264       .  A
O689        V694   1.899       .  S
O689        C698   1.264       .  A
O690        C697   1.264       .  A
O691        C696   1.264       .  A
O692        V694   1.899       .  S
O692        C695   1.264       .  A
V693        V694   2.090       .  T
C695        C699   1.464       .  S
C696        C717   1.464       .  S
C697        C711   1.464       .  S
C698        C705   1.464       .  S
C699        N700   1.357       .  A
C699        N704   1.357       .  A
N700        C701   1.357       .  A
C701        N702   1.359       .  A
C701       C1201   1.460   1_554  S
N702        C703   1.359       .  A
C703        N704   1.357       .  A
C705        N706   1.357       .  A
C705        N710   1.357       .  A
N706        C707   1.357       .  A
C707        N708   1.359       .  A
C707        C891   1.460   1_554  S
N708        C709   1.359       .  A
C709        N710   1.357       .  A
C711        N712   1.357       .  A
C711        N716   1.357       .  A
N712        C713   1.357       .  A
C713        N714   1.359       .  A
C713       C1209   1.460   1_554  S
N714        C715   1.359       .  A
C715        N716   1.357       .  A
C717        N718   1.357       .  A
C717        N722   1.357       .  A
N718        C719   1.357       .  A
C719        N720   1.359       .  A
N720        C721   1.359       .  A
C721        N722   1.357       .  A
C721        C909   1.460   1_554  S
O723        V731   1.899       .  S
O723        C733   1.264       .  A
O724        C734   1.264       .  A
O725        V731   1.899       .  S
O725        C735   1.264       .  A
O726        C736   1.264       .  A
O727        C736   1.264       .  A
O728        V732   1.899       .  S
O728        C735   1.264       .  A
O729        C734   1.264       .  A
O730        V732   1.899       .  S
O730        C733   1.264       .  A
V731        V732   2.090       .  T
C733        C743   1.464       .  S
C734        C755   1.464       .  S
C735        C737   1.464       .  S
C736        C749   1.464       .  S
C737        N738   1.357       .  A
C737        N742   1.357       .  A
N738        C739   1.357       .  A
C739        N740   1.359       .  A
C739        C859   1.460       .  S
N740        C741   1.359       .  A
C741        N742   1.357       .  A
C743        N744   1.357       .  A
C743        N748   1.357       .  A
N744        C745   1.357       .  A
C745        N746   1.359       .  A
C745       C1157   1.460   1_545  S
N746        C747   1.359       .  A
C747        N748   1.357       .  A
C749        N750   1.357       .  A
C749        N754   1.357       .  A
N750        C751   1.357       .  A
C751        N752   1.359       .  A
N752        C753   1.359       .  A
C753        N754   1.357       .  A
C753       C1169   1.460   1_545  S
C755        N756   1.357       .  A
C755        N760   1.357       .  A
N756        C757   1.357       .  A
C757        N758   1.359       .  A
C757        C873   1.460       .  S
N758        C759   1.359       .  A
C759        N760   1.357       .  A
C761        N762   1.357       .  A
C761        N766   1.357       .  A
C761        C777   1.464       .  S
N762        C763   1.357       .  A
C763        N764   1.359       .  A
C763        C899   1.460       .  S
N764        C765   1.359       .  A
C765        N766   1.357       .  A
C765       C1107   1.460   1_545  S
O767        V775   1.899       .  S
O767        C777   1.264       .  A
O768        V775   1.899       .  S
O768        C778   1.264       .  A
O769        V775   1.899       .  S
O769        C779   1.264       .  A
O770        V775   1.899       .  S
O770        C780   1.264       .  A
O771        V776   1.899       .  S
O771        C780   1.264       .  A
O772        V776   1.899       .  S
O772        C779   1.264       .  A
O773        V776   1.899       .  S
O773        C778   1.264       .  A
O774        V776   1.899       .  S
O774        C777   1.264       .  A
V775        V776   2.090       .  T
C778        C793   1.464       .  S
C779        C781   1.464       .  S
C780        C787   1.464       .  S
C781        N782   1.357       .  A
C781        N786   1.357       .  A
N782        C783   1.357       .  A
C783        N784   1.359       .  A
C783       C1127   1.460   1_545  S
N784        C785   1.359       .  A
C785        N786   1.357       .  A
C785        C903   1.460       .  S
C787        N788   1.357       .  A
C787        N792   1.357       .  A
N788        C789   1.357       .  A
C789        N790   1.359       .  A
C789        C893   1.460       .  S
N790        C791   1.359       .  A
C791        N792   1.357       .  A
C791        C829   1.460       .  S
C793        N794   1.357       .  A
C793        N798   1.357       .  A
N794        C795   1.357       .  A
C795        N796   1.359       .  A
C795        C833   1.460       .  S
N796        C797   1.359       .  A
C797        N798   1.357       .  A
C797        C911   1.460       .  S
C799        N800   1.357       .  A
C799        N804   1.357       .  A
C799        C817   1.464       .  S
N800        C801   1.357       .  A
C801        N802   1.359       .  A
C801        C855   1.460       .  S
N802        C803   1.359       .  A
C803        N804   1.357       .  A
C803       C1069   1.460       .  S
O805        V813   1.899       .  S
O805        C815   1.264       .  A
O806        V813   1.899       .  S
O806        C816   1.264       .  A
O807        V813   1.899       .  S
O807        C817   1.264       .  A
O808        V813   1.899       .  S
O808        C818   1.264       .  A
O809        V814   1.899       .  S
O809        C818   1.264       .  A
O810        V814   1.899       .  S
O810        C817   1.264       .  A
O811        V814   1.899       .  S
O811        C816   1.264       .  A
O812        V814   1.899       .  S
O812        C815   1.264       .  A
V813        V814   2.090       .  T
C815        C825   1.464       .  S
C816        C819   1.464       .  S
C818        C831   1.464       .  S
C819        N820   1.357       .  A
C819        N824   1.357       .  A
N820        C821   1.357       .  A
C821        N822   1.359       .  A
C821        C867   1.460       .  S
N822        C823   1.359       .  A
C823        N824   1.357       .  A
C823       C1087   1.460       .  S
C825        N826   1.357       .  A
C825        N830   1.357       .  A
N826        C827   1.357       .  A
C827        N828   1.359       .  A
C827        C861   1.460       .  S
N828        C829   1.359       .  A
C829        N830   1.357       .  A
C831        N832   1.357       .  A
C831        N836   1.357       .  A
N832        C833   1.357       .  A
C833        N834   1.359       .  A
N834        C835   1.359       .  A
C835        N836   1.357       .  A
C835        C871   1.460       .  S
O837        V845   1.899       .  S
O837        C847   1.264       .  A
O838        C848   1.264       .  A
O839        C849   1.264       .  A
O840        V845   1.899       .  S
O840        C850   1.264       .  A
O841        V846   1.899       .  S
O841        C850   1.264       .  A
O842        C849   1.264       .  A
O843        C848   1.264       .  A
O844        V846   1.899       .  S
O844        C847   1.264       .  A
V845        V846   2.090       .  T
C847        C851   1.464       .  S
C848        C869   1.464       .  S
C849        C863   1.464       .  S
C850        C857   1.464       .  S
C851        N852   1.357       .  A
C851        N856   1.357       .  A
N852        C853   1.357       .  A
C853        N854   1.359       .  A
C853       C1049   1.460       .  S
N854        C855   1.359       .  A
C855        N856   1.357       .  A
C857        N858   1.357       .  A
C857        N862   1.357       .  A
N858        C859   1.357       .  A
C859        N860   1.359       .  A
N860        C861   1.359       .  A
C861        N862   1.357       .  A
C863        N864   1.357       .  A
C863        N868   1.357       .  A
N864        C865   1.357       .  A
C865        N866   1.359       .  A
C865       C1057   1.460       .  S
N866        C867   1.359       .  A
C867        N868   1.357       .  A
C869        N870   1.357       .  A
C869        N874   1.357       .  A
N870        C871   1.357       .  A
C871        N872   1.359       .  A
N872        C873   1.359       .  A
C873        N874   1.357       .  A
O875        V883   1.899       .  S
O875        C885   1.264       .  A
O876        C886   1.264       .  A
O877        V883   1.899       .  S
O877        C887   1.264       .  A
O878        C888   1.264       .  A
O879        C888   1.264       .  A
O880        V884   1.899       .  S
O880        C887   1.264       .  A
O881        C886   1.264       .  A
O882        V884   1.899       .  S
O882        C885   1.264       .  A
V883        V884   2.090       .  T
C885        C895   1.464       .  S
C886        C907   1.464       .  S
C887        C889   1.463       .  S
C888        C901   1.464       .  S
C889        N890   1.357       .  A
C889        N894   1.357       .  A
N890        C891   1.357       .  A
C891        N892   1.359       .  A
N892        C893   1.359       .  A
C893        N894   1.357       .  A
C895        N896   1.357       .  A
C895        N900   1.357       .  A
N896        C897   1.357       .  A
C897        N898   1.359       .  A
C897       C1005   1.460   1_546  S
N898        C899   1.359       .  A
C899        N900   1.357       .  A
C901        N902   1.357       .  A
C901        N906   1.357       .  A
N902        C903   1.357       .  A
C903        N904   1.359       .  A
N904        C905   1.359       .  A
C905        N906   1.357       .  A
C905       C1017   1.460   1_546  S
C907        N908   1.357       .  A
C907        N912   1.357       .  A
N908        C909   1.357       .  A
C909        N910   1.359       .  A
N910        C911   1.359       .  A
C911        N912   1.357       .  A
C913        N914   1.357       .  A
C913        N918   1.357       .  A
C913        C929   1.464       .  S
N914        C915   1.357       .  A
C915        N916   1.359       .  A
C915       C1051   1.460       .  S
N916        C917   1.359       .  A
C917        N918   1.357       .  A
O919        V927   1.899       .  S
O919        C929   1.264       .  A
O920        V927   1.899       .  S
O920        C930   1.264       .  A
O921        V927   1.899       .  S
O921        C931   1.264       .  A
O922        V927   1.899       .  S
O922        C932   1.264       .  A
O923        V928   1.899       .  S
O923        C932   1.264       .  A
O924        V928   1.899       .  S
O924        C931   1.264       .  A
O925        V928   1.899       .  S
O925        C930   1.264       .  A
O926        V928   1.899       .  S
O926        C929   1.264       .  A
V927        V928   2.090       .  T
C930        C945   1.463       .  S
C931        C933   1.464       .  S
C932        C939   1.464       .  S
C933        N934   1.357       .  A
C933        N938   1.357       .  A
N934        C935   1.357       .  A
C935        N936   1.359       .  A
N936        C937   1.359       .  A
C937        N938   1.357       .  A
C937       C1055   1.460       .  S
C939        N940   1.357       .  A
C939        N944   1.357       .  A
N940        C941   1.357       .  A
C941        N942   1.359       .  A
C941       C1045   1.460       .  S
N942        C943   1.359       .  A
C943        N944   1.357       .  A
C943        C981   1.460       .  S
C945        N946   1.357       .  A
C945        N950   1.357       .  A
N946        C947   1.357       .  A
C947        N948   1.359       .  A
C947        C985   1.460       .  S
N948        C949   1.359       .  A
C949        N950   1.357       .  A
C949       C1063   1.460       .  S
C951        N952   1.357       .  A
C951        N956   1.357       .  A
C951        C969   1.464       .  S
N952        C953   1.357       .  A
C953        N954   1.359       .  A
C953       C1007   1.460       .  S
N954        C955   1.359       .  A
C955        N956   1.357       .  A
O957        V965   1.899       .  S
O957        C967   1.264       .  A
O958        V965   1.899       .  S
O958        C968   1.264       .  A
O959        V965   1.899       .  S
O959        C969   1.264       .  A
O960        V965   1.899       .  S
O960        C970   1.264       .  A
O961        V966   1.899       .  S
O961        C970   1.264       .  A
O962        V966   1.899       .  S
O962        C969   1.264       .  A
O963        V966   1.899       .  S
O963        C968   1.264       .  A
O964        V966   1.899       .  S
O964        C967   1.264       .  A
V965        V966   2.090       .  T
C967        C977   1.464       .  S
C968        C971   1.464       .  S
C970        C983   1.464       .  S
C971        N972   1.357       .  A
C971        N976   1.357       .  A
N972        C973   1.357       .  A
C973        N974   1.359       .  A
C973       C1019   1.460       .  S
N974        C975   1.359       .  A
C975        N976   1.357       .  A
C977        N978   1.357       .  A
C977        N982   1.357       .  A
N978        C979   1.357       .  A
C979        N980   1.359       .  A
C979       C1013   1.460       .  S
N980        C981   1.359       .  A
C981        N982   1.357       .  A
C983        N984   1.357       .  A
C983        N988   1.357       .  A
N984        C985   1.357       .  A
C985        N986   1.359       .  A
N986        C987   1.359       .  A
C987        N988   1.357       .  A
C987       C1023   1.460       .  S
O989        V997   1.899       .  S
O989        C999   1.264       .  A
O990       C1000   1.264       .  A
O991       C1001   1.264       .  A
O992        V997   1.899       .  S
O992       C1002   1.264       .  A
O993        V998   1.899       .  S
O993       C1002   1.264       .  A
O994       C1001   1.264       .  A
O995       C1000   1.264       .  A
O996        V998   1.899       .  S
O996        C999   1.264       .  A
V997        V998   2.090       .  T
C999       C1003   1.464       .  S
C1000      C1021   1.464       .  S
C1001      C1015   1.464       .  S
C1002      C1009   1.464       .  S
C1003      N1004   1.357       .  A
C1003      N1008   1.357       .  A
N1004      C1005   1.357       .  A
C1005      N1006   1.359       .  A
N1006      C1007   1.359       .  A
C1007      N1008   1.357       .  A
C1009      N1010   1.357       .  A
C1009      N1014   1.357       .  A
N1010      C1011   1.357       .  A
C1011      N1012   1.359       .  A
C1011      C1195   1.460   1_554  S
N1012      C1013   1.359       .  A
C1013      N1014   1.357       .  A
C1015      N1016   1.357       .  A
C1015      N1020   1.357       .  A
N1016      C1017   1.357       .  A
C1017      N1018   1.359       .  A
N1018      C1019   1.359       .  A
C1019      N1020   1.357       .  A
C1021      N1022   1.357       .  A
C1021      N1026   1.357       .  A
N1022      C1023   1.357       .  A
C1023      N1024   1.359       .  A
N1024      C1025   1.359       .  A
C1025      N1026   1.357       .  A
C1025      C1213   1.460   1_554  S
O1027      V1035   1.899       .  S
O1027      C1037   1.264       .  A
O1028      C1038   1.264       .  A
O1029      V1035   1.899       .  S
O1029      C1039   1.264       .  A
O1030      C1040   1.264       .  A
O1031      C1040   1.264       .  A
O1032      V1036   1.899       .  S
O1032      C1039   1.264       .  A
O1033      C1038   1.264       .  A
O1034      V1036   1.899       .  S
O1034      C1037   1.264       .  A
V1035      V1036   2.090       .  T
C1037      C1047   1.464       .  S
C1038      C1059   1.464       .  S
C1039      C1041   1.464       .  S
C1040      C1053   1.464       .  S
C1041      N1042   1.357       .  A
C1041      N1046   1.357       .  A
N1042      C1043   1.357       .  A
C1043      N1044   1.359       .  A
C1043      C1163   1.460       .  S
N1044      C1045   1.359       .  A
C1045      N1046   1.357       .  A
C1047      N1048   1.357       .  A
C1047      N1052   1.357       .  A
N1048      C1049   1.357       .  A
C1049      N1050   1.359       .  A
N1050      C1051   1.359       .  A
C1051      N1052   1.357       .  A
C1053      N1054   1.357       .  A
C1053      N1058   1.357       .  A
N1054      C1055   1.357       .  A
C1055      N1056   1.359       .  A
N1056      C1057   1.359       .  A
C1057      N1058   1.357       .  A
C1059      N1060   1.357       .  A
C1059      N1064   1.357       .  A
N1060      C1061   1.357       .  A
C1061      N1062   1.359       .  A
C1061      C1177   1.460       .  S
N1062      C1063   1.359       .  A
C1063      N1064   1.357       .  A
C1065      N1066   1.357       .  A
C1065      N1070   1.357       .  A
C1065      C1081   1.464       .  S
N1066      C1067   1.357       .  A
C1067      N1068   1.359       .  A
C1067      C1203   1.460       .  S
N1068      C1069   1.359       .  A
C1069      N1070   1.357       .  A
O1071      V1079   1.899       .  S
O1071      C1081   1.264       .  A
O1072      V1079   1.899       .  S
O1072      C1082   1.264       .  A
O1073      V1079   1.899       .  S
O1073      C1083   1.264       .  A
O1074      V1079   1.899       .  S
O1074      C1084   1.264       .  A
O1075      V1080   1.899       .  S
O1075      C1084   1.264       .  A
O1076      V1080   1.899       .  S
O1076      C1083   1.264       .  A
O1077      V1080   1.899       .  S
O1077      C1082   1.264       .  A
O1078      V1080   1.899       .  S
O1078      C1081   1.264       .  A
V1079      V1080   2.090       .  T
C1082      C1097   1.464       .  S
C1083      C1085   1.464       .  S
C1084      C1091   1.464       .  S
C1085      N1086   1.357       .  A
C1085      N1090   1.357       .  A
N1086      C1087   1.357       .  A
C1087      N1088   1.359       .  A
N1088      C1089   1.359       .  A
C1089      N1090   1.357       .  A
C1089      C1207   1.460       .  S
C1091      N1092   1.357       .  A
C1091      N1096   1.357       .  A
N1092      C1093   1.357       .  A
C1093      N1094   1.359       .  A
C1093      C1197   1.460       .  S
N1094      C1095   1.359       .  A
C1095      N1096   1.357       .  A
C1095      C1133   1.460       .  S
C1097      N1098   1.357       .  A
C1097      N1102   1.357       .  A
N1098      C1099   1.357       .  A
C1099      N1100   1.359       .  A
C1099      C1137   1.460       .  S
N1100      C1101   1.359       .  A
C1101      N1102   1.357       .  A
C1101      C1215   1.460       .  S
C1103      N1104   1.357       .  A
C1103      N1108   1.357       .  A
C1103      C1121   1.464       .  S
N1104      C1105   1.357       .  A
C1105      N1106   1.359       .  A
C1105      C1159   1.460       .  S
N1106      C1107   1.359       .  A
C1107      N1108   1.357       .  A
O1109      V1117   1.899       .  S
O1109      C1119   1.264       .  A
O1110      V1117   1.899       .  S
O1110      C1120   1.264       .  A
O1111      V1117   1.899       .  S
O1111      C1121   1.264       .  A
O1112      V1117   1.899       .  S
O1112      C1122   1.264       .  A
O1113      V1118   1.899       .  S
O1113      C1122   1.264       .  A
O1114      V1118   1.899       .  S
O1114      C1121   1.264       .  A
O1115      V1118   1.899       .  S
O1115      C1120   1.264       .  A
O1116      V1118   1.899       .  S
O1116      C1119   1.264       .  A
V1117      V1118   2.090       .  T
C1119      C1129   1.464       .  S
C1120      C1123   1.464       .  S
C1122      C1135   1.464       .  S
C1123      N1124   1.357       .  A
C1123      N1128   1.357       .  A
N1124      C1125   1.357       .  A
C1125      N1126   1.359       .  A
C1125      C1171   1.460       .  S
N1126      C1127   1.359       .  A
C1127      N1128   1.357       .  A
C1129      N1130   1.357       .  A
C1129      N1134   1.357       .  A
N1130      C1131   1.357       .  A
C1131      N1132   1.359       .  A
C1131      C1165   1.460       .  S
N1132      C1133   1.359       .  A
C1133      N1134   1.357       .  A
C1135      N1136   1.357       .  A
C1135      N1140   1.357       .  A
N1136      C1137   1.357       .  A
C1137      N1138   1.359       .  A
N1138      C1139   1.359       .  A
C1139      N1140   1.357       .  A
C1139      C1175   1.460       .  S
O1141      V1149   1.899       .  S
O1141      C1151   1.264       .  A
O1142      C1152   1.264       .  A
O1143      C1153   1.264       .  A
O1144      V1149   1.899       .  S
O1144      C1154   1.264       .  A
O1145      V1150   1.899       .  S
O1145      C1154   1.264       .  A
O1146      C1153   1.264       .  A
O1147      C1152   1.264       .  A
O1148      V1150   1.899       .  S
O1148      C1151   1.264       .  A
V1149      V1150   2.090       .  T
C1151      C1155   1.464       .  S
C1152      C1173   1.464       .  S
C1153      C1167   1.464       .  S
C1154      C1161   1.464       .  S
C1155      N1156   1.357       .  A
C1155      N1160   1.357       .  A
N1156      C1157   1.357       .  A
C1157      N1158   1.359       .  A
N1158      C1159   1.359       .  A
C1159      N1160   1.357       .  A
C1161      N1162   1.357       .  A
C1161      N1166   1.357       .  A
N1162      C1163   1.357       .  A
C1163      N1164   1.359       .  A
N1164      C1165   1.359       .  A
C1165      N1166   1.357       .  A
C1167      N1168   1.357       .  A
C1167      N1172   1.357       .  A
N1168      C1169   1.357       .  A
C1169      N1170   1.359       .  A
N1170      C1171   1.359       .  A
C1171      N1172   1.357       .  A
C1173      N1174   1.357       .  A
C1173      N1178   1.357       .  A
N1174      C1175   1.357       .  A
C1175      N1176   1.359       .  A
N1176      C1177   1.359       .  A
C1177      N1178   1.357       .  A
O1179      V1187   1.899       .  S
O1179      C1189   1.264       .  A
O1180      C1190   1.264       .  A
O1181      V1187   1.899       .  S
O1181      C1191   1.264       .  A
O1182      C1192   1.264       .  A
O1183      C1192   1.264       .  A
O1184      V1188   1.899       .  S
O1184      C1191   1.264       .  A
O1185      C1190   1.264       .  A
O1186      V1188   1.899       .  S
O1186      C1189   1.264       .  A
V1187      V1188   2.090       .  T
C1189      C1199   1.464       .  S
C1190      C1211   1.464       .  S
C1191      C1193   1.464       .  S
C1192      C1205   1.464       .  S
C1193      N1194   1.357       .  A
C1193      N1198   1.357       .  A
N1194      C1195   1.357       .  A
C1195      N1196   1.359       .  A
N1196      C1197   1.359       .  A
C1197      N1198   1.357       .  A
C1199      N1200   1.357       .  A
C1199      N1204   1.357       .  A
N1200      C1201   1.357       .  A
C1201      N1202   1.359       .  A
N1202      C1203   1.359       .  A
C1203      N1204   1.357       .  A
C1205      N1206   1.357       .  A
C1205      N1210   1.357       .  A
N1206      C1207   1.357       .  A
C1207      N1208   1.359       .  A
N1208      C1209   1.359       .  A
C1209      N1210   1.357       .  A
C1211      N1212   1.357       .  A
C1211      N1216   1.357       .  A
N1212      C1213   1.357       .  A
C1213      N1214   1.359       .  A
N1214      C1215   1.359       .  A
C1215      N1216   1.357       .  A
