geometry optimzed in LAMMPS
_audit_creation_date              2020-11-30 
_audit_creation_method            'lammps2cif' 
_symmetry_space_group_name_H-M    'P1' 
_symmetry_Int_Tables_number       1 
_symmetry_cell_setting            triclinic 
loop_ 
_symmetry_equiv_pos_as_xyz 
  x,y,z 
_cell_length_a                    31.84073792 
_cell_length_b                    32.50573260250729 
_cell_length_c                    28.790647664620984 
_cell_angle_alpha                 90.80266881875043 
_cell_angle_beta                  88.63958588478253 
_cell_angle_gamma                 90.9437743969342 
loop_ 
_atom_site_label 
_atom_site_type_symbol 
_atom_site_fract_x 
_atom_site_fract_y 
_atom_site_fract_z 
_atom_site_charge 
C1          C  0.31147839  0.13366284  0.80365300     0.82100
N2          N  0.34900592  0.14826075  0.78730501    -0.76200
C3          C  0.36529736  0.18396073  0.80442825     0.84600
N4          N  0.34346800  0.20567866  0.83732365    -0.76100
C5          C  0.30572587  0.19120652  0.85385265     0.84600
N6          N  0.28969603  0.15522046  0.83667585    -0.77900
C7          C  0.05350601  0.11160681  0.60622526     0.82100
N8          N  0.03501058  0.09302287  0.56928465    -0.76200
C9          C  0.05126588  0.05803185  0.55029521     0.84600
N10         N  0.08612100  0.04159240  0.56864976    -0.76100
C11         C  0.10467963  0.06009336  0.60560893     0.84600
N12         N  0.08831482  0.09509367  0.62437073    -0.77900
C13         C  0.12940403  0.30941419  0.78235150     0.82100
N14         N  0.14762687  0.29281286  0.81969959    -0.76200
C15         C  0.18239911  0.31097645  0.83804249     0.84600
N16         N  0.19878431  0.34584764  0.81874837    -0.76100
C17         C  0.18046288  0.36244805  0.78140188     0.84600
N18         N  0.14581603  0.34422211  0.76330287    -0.77900
C19         C  0.36752042  0.43064439  0.59234350     0.82100
N20         N  0.38918569  0.45084354  0.55825151    -0.76200
C21         C  0.42598019  0.43571252  0.54089958     0.84600
N22         N  0.44122404  0.40041264  0.55819852    -0.76100
C23         C  0.41966907  0.38018669  0.59234163     0.84600
N24         N  0.38302780  0.39552581  0.60971615    -0.77900
C25         C  0.47065698  0.28412505  0.66112501     0.88400
C26         C  0.00826937  0.29961953  0.68893054    -0.51900
C27         C  0.02476710  0.27035759  0.71627228     0.11300
C28         C  0.00209316  0.22824913  0.71354150     0.22300
C29         C  0.48660917  0.24638606  0.63375928    -0.52600
C30         C  0.00315935  0.21714812  0.66133069     0.11400
C31         C  0.43932180  0.26702158  0.69728914    -0.52100
C32         C  0.45569562  0.23780019  0.72471275     0.12000
H33         H  0.02100780  0.33078906  0.68683261     0.16500
H34         H  0.01550044  0.20440974  0.73590422     0.02200
H35         H  0.48525813  0.24322310  0.59620902     0.16800
H36         H  0.40686265  0.27676810  0.70056174     0.16600
C37         C  0.26075844  0.03716452  0.73024250     0.88400
C38         C  0.22445740  0.05206932  0.70133604    -0.51900
C39         C  0.20799539  0.02245775  0.67284589     0.11300
C40         C  0.22963524  0.48042684  0.67571310     0.22300
C41         C  0.24323532  0.99963723  0.75634196    -0.52600
C42         C  0.22705483  0.46989700  0.72770862     0.11400
C43         C  0.29284053  0.01986474  0.69499007    -0.52100
C44         C  0.27667500  0.48995453  0.66661334     0.12000
H45         H  0.21237868  0.08313453  0.70371337     0.16500
H46         H  0.21636471  0.45609404  0.65258367     0.02200
H47         H  0.24403452  0.99660686  0.79386566     0.16800
H48         H  0.32575456  0.02931509  0.69372545     0.16600
O49         O  0.29556662  0.25062805  0.90163963    -0.72500
O50         O  0.23077828  0.31564983  0.98834329    -0.72600
O51         O  0.29000152  0.25717212  0.99557755    -0.72600
O52         O  0.23612632  0.30876137  0.89414171    -0.72700
O53         O  0.18610831  0.25987037  0.89570919    -0.72600
O54         O  0.23984036  0.20841361  0.99659399    -0.72600
O55         O  0.18071691  0.26681078  0.98977025    -0.72600
O56         O  0.24544855  0.20183555  0.90279339    -0.72600
Ni57       Ni  0.26487440  0.28483719  0.94488054     1.25400
Ni58       Ni  0.21121593  0.23254661  0.94628378     1.25400
C59         C  0.28115972  0.21561872  0.88788774     0.89600
C60         C  0.19531439  0.30172547  0.00371045     0.89600
C61         C  0.27378603  0.22413006  0.01255502     0.89600
C62         C  0.20246031  0.29246912  0.87798418     0.89800
O63         O  0.48923879  0.44671439  0.39625868    -0.72500
O64         O  0.04600729  0.00415124  0.49400233    -0.72600
O65         O  0.48551947  0.44478060  0.49034229    -0.72600
O66         O  0.04928211  0.00626415  0.39941290    -0.72700
O67         O  0.50001128  0.05432389  0.40081337    -0.72600
O68         O  0.43616147  0.49275279  0.49109907    -0.72600
O69         O  0.49664845  0.05211769  0.49536097    -0.72600
O70         O  0.44005371  0.49486730  0.39696688    -0.72600
Ni71       Ni  0.01931547  0.47381207  0.44501014     1.25400
Ni72       Ni  0.46649954  0.02526228  0.44615899     1.25400
C73         C  0.45558905  0.46152784  0.38025347     0.89600
C74         C  0.03042132  0.03725528  0.51118733     0.89600
C75         C  0.45030747  0.45871612  0.50559834     0.89600
C76         C  0.03459591  0.03995575  0.38441979     0.89800
C77         C  0.29690157  0.14803203  0.10235771     0.82100
N78         N  0.33276939  0.16406970  0.12018953    -0.76200
C79         C  0.34957014  0.19971362  0.10351587     0.84600
N80         N  0.33044303  0.21941060  0.06870358    -0.76100
C81         C  0.29442126  0.20346460  0.05071002     0.84600
N82         N  0.27778521  0.16770720  0.06762946    -0.77900
C83         C  0.05926205  0.11469023  0.29142818     0.82100
N84         N  0.04008475  0.09602960  0.32831205    -0.76200
C85         C  0.05685752  0.06172714  0.34651561     0.84600
N86         N  0.09264320  0.04601597  0.32719473    -0.76100
C87         C  0.11169626  0.06473458  0.29028273     0.84600
N88         N  0.09491006  0.09890990  0.27238956    -0.77900
C89         C  0.16698716  0.38216105  0.09093637     0.82100
N90         N  0.18734151  0.36179307  0.05579141    -0.76200
C91         C  0.17160246  0.32549799  0.03909444     0.84600
N92         N  0.13564891  0.30943614  0.05821551    -0.76100
C93         C  0.11522554  0.32955661  0.09338324     0.84600
N94         N  0.13119533  0.36570460  0.11014701    -0.77900
C95         C  0.43179444  0.38498131  0.28795384     0.82100
N96         N  0.45021077  0.40405401  0.32460740    -0.76200
C97         C  0.43494371  0.44024269  0.34152711     0.84600
N98         N  0.40137720  0.45732152  0.32134274    -0.76100
C99         C  0.38313942  0.43821740  0.28461935     0.84600
N100        N  0.39837837  0.40213669  0.26791816    -0.77900
C101        C  0.00990880  0.21258247  0.22421132     0.88400
C102        C  0.04226857  0.23271111  0.19104483    -0.51900
C103        C  0.02658303  0.26446160  0.16664386     0.11300
C104        C  0.47983367  0.27279915  0.17720598     0.22300
C105        C  0.49333454  0.24789828  0.25495435    -0.52600
C106        C  0.47767600  0.27937392  0.23018116     0.11400
C107        C  0.47305400  0.19959628  0.19380305    -0.52100
C108        C  0.45714895  0.23112634  0.16930776     0.12000
H109        H  0.07494812  0.22364464  0.18830936     0.16500
H110        H  0.46695364  0.29861963  0.15735221     0.02200
H111        H  0.49421335  0.24817271  0.29268607     0.16800
H112        H  0.45997976  0.16850803  0.19268395     0.16600
C113        C  0.28445933  0.48749070  0.21713413     0.88400
C114        C  0.29701280  0.02433976  0.18713708    -0.51900
C115        C  0.26439543  0.04014755  0.16374429     0.11300
C116        C  0.22210692  0.01722550  0.17217754     0.22300
C117        C  0.24860483  0.00266204  0.24900497    -0.52600
C118        C  0.21599305  0.01818627  0.22538705     0.11400
C119        C  0.26403128  0.45627642  0.18401722    -0.52100
C120        C  0.23117053  0.47166876  0.16061683     0.12000
H121        H  0.32858002  0.03759747  0.18568698     0.16500
H122        H  0.19537945  0.02999576  0.15320776     0.02200
H123        H  0.24893493  0.00125337  0.28670140     0.16800
H124        H  0.27374127  0.42445245  0.18057017     0.16600
C125        C  0.31947222  0.47079897  0.24246813    -0.11400
C126        C  0.34840637  0.45647129  0.26254189    -0.12900
C127        C  0.46154900  0.31610633  0.25196728    -0.11400
C128        C  0.44821472  0.34730638  0.26932256    -0.12900
C129        C  0.20528865  0.44517767  0.13191028    -0.11400
C130        C  0.18623088  0.41825546  0.11156201    -0.12900
C131        C  0.07983793  0.30984488  0.11639050    -0.11400
C132        C  0.05345182  0.29018644  0.13769397    -0.12900
C133        C  0.02675224  0.17856059  0.25063817    -0.11400
C134        C  0.04098557  0.14985112  0.27074296    -0.12900
C135        C  0.14853401  0.04758965  0.26861171    -0.11400
C136        C  0.17916367  0.03404959  0.24883542    -0.12900
C137        C  0.26978617  0.07763600  0.13775744    -0.11400
C138        C  0.27991947  0.10984929  0.11995925    -0.12900
C139        C  0.38789817  0.21587097  0.12267504    -0.11400
C140        C  0.41997499  0.22536958  0.14198448    -0.12900
C141        C  0.33090454  0.44895872  0.61365620    -0.11400
C142        C  0.30359367  0.46664827  0.63535150    -0.12900
C143        C  0.43733031  0.34449302  0.61270391    -0.11400
C144        C  0.45260933  0.31617187  0.63260042    -0.12900
C145        C  0.19715092  0.39968487  0.76143811    -0.11400
C146        C  0.21054061  0.43142854  0.74521961    -0.13700
C147        C  0.09250395  0.29074649  0.76293890    -0.11400
C148        C  0.06136854  0.27891820  0.74346405    -0.12900
C149        C  0.14131826  0.04253892  0.62546082    -0.11400
C150        C  0.17197258  0.03075216  0.64501806    -0.12900
C151        C  0.03594729  0.14852144  0.62633282    -0.11400
C152        C  0.02095419  0.17958950  0.64265486    -0.12900
C153        C  0.29314303  0.09774800  0.78236622    -0.11400
C154        C  0.27832276  0.06939960  0.76051310    -0.12900
C155        C  0.40253164  0.20126905  0.78288434    -0.11400
C156        C  0.42980805  0.21688241  0.75895955    -0.12900
C157        C  0.31147838  0.63366282  0.80365303     0.82100
N158        N  0.34900600  0.64826077  0.78730503    -0.76200
C159        C  0.36529732  0.68396074  0.80442828     0.84600
N160        N  0.34346802  0.70567876  0.83732356    -0.76100
C161        C  0.30572578  0.69120655  0.85385262     0.84600
N162        N  0.28969610  0.65522049  0.83667583    -0.77900
C163        C  0.05350609  0.61160687  0.60622521     0.82100
N164        N  0.03501059  0.59302283  0.56928467    -0.76200
C165        C  0.05126590  0.55803186  0.55029522     0.84600
N166        N  0.08612105  0.54159241  0.56864976    -0.76100
C167        C  0.10467962  0.56009337  0.60560898     0.84600
N168        N  0.08831487  0.59509369  0.62437069    -0.77900
C169        C  0.12940406  0.80941413  0.78235152     0.82100
N170        N  0.14762698  0.79281281  0.81969956    -0.76200
C171        C  0.18239919  0.81097640  0.83804246     0.84600
N172        N  0.19878438  0.84584762  0.81874832    -0.76100
C173        C  0.18046287  0.86244805  0.78140190     0.84600
N174        N  0.14581599  0.84422211  0.76330292    -0.77900
C175        C  0.36752041  0.93064433  0.59234347     0.82100
N176        N  0.38918570  0.95084346  0.55825148    -0.76200
C177        C  0.42598022  0.93571261  0.54089963     0.84600
N178        N  0.44122416  0.90041267  0.55819855    -0.76100
C179        C  0.41966917  0.88018671  0.59234161     0.84600
N180        N  0.38302790  0.89552576  0.60971616    -0.77900
C181        C  0.47065699  0.78412505  0.66112504     0.88400
C182        C  0.00826929  0.79961946  0.68893059    -0.51900
C183        C  0.02476705  0.77035758  0.71627231     0.11300
C184        C  0.00209316  0.72824909  0.71354150     0.22300
C185        C  0.48660916  0.74638610  0.63375929    -0.52600
C186        C  0.00315940  0.71714814  0.66133067     0.11400
C187        C  0.43932182  0.76702155  0.69728913    -0.52100
C188        C  0.45569560  0.73780015  0.72471271     0.12000
H189        H  0.02100781  0.83078926  0.68683259     0.16500
H190        H  0.01550045  0.70440973  0.73590418     0.02200
H191        H  0.48525799  0.74322313  0.59620899     0.16800
H192        H  0.40686258  0.77676814  0.70056174     0.16600
C193        C  0.26075835  0.53716450  0.73024255     0.88400
C194        C  0.22445722  0.55206958  0.70133607    -0.51900
C195        C  0.20799537  0.52245776  0.67284587     0.11300
C196        C  0.22963532  0.98042686  0.67571317     0.22300
C197        C  0.24323524  0.49963717  0.75634195    -0.52600
C198        C  0.22705485  0.96989703  0.72770865     0.11400
C199        C  0.29284026  0.51986471  0.69499010    -0.52100
C200        C  0.27667503  0.98995448  0.66661335     0.12000
H201        H  0.21237905  0.58313346  0.70371326     0.16500
H202        H  0.21636469  0.95609384  0.65258356     0.02200
H203        H  0.24403442  0.49660677  0.79386570     0.16800
H204        H  0.32575523  0.52931534  0.69372551     0.16600
O205        O  0.29556652  0.75062803  0.90163964    -0.72500
O206        O  0.23077829  0.81564981  0.98834335    -0.72600
O207        O  0.29000158  0.75717211  0.99557752    -0.72600
O208        O  0.23612638  0.80876139  0.89414174    -0.72700
O209        O  0.18610842  0.75987037  0.89570917    -0.72600
O210        O  0.23984047  0.70841359  0.99659399    -0.72600
O211        O  0.18071687  0.76681083  0.98977017    -0.72600
O212        O  0.24544852  0.70183548  0.90279341    -0.72600
Ni213      Ni  0.26487438  0.78483716  0.94488056     1.25400
Ni214      Ni  0.21121597  0.73254660  0.94628378     1.25400
C215        C  0.28115973  0.71561874  0.88788772     0.89600
C216        C  0.19531433  0.80172547  0.00371042     0.89600
C217        C  0.27378615  0.72413005  0.01255498     0.89600
C218        C  0.20246044  0.79246916  0.87798417     0.89800
O219        O  0.48923877  0.94671439  0.39625865    -0.72500
O220        O  0.04600738  0.50415124  0.49400233    -0.72600
O221        O  0.48551948  0.94478072  0.49034235    -0.72600
O222        O  0.04928225  0.50626414  0.39941292    -0.72700
O223        O  0.50001136  0.55432386  0.40081337    -0.72600
O224        O  0.43616136  0.99275280  0.49109902    -0.72600
O225        O  0.49664859  0.55211764  0.49536095    -0.72600
O226        O  0.44005365  0.99486726  0.39696689    -0.72600
Ni227      Ni  0.01931536  0.97381210  0.44501015     1.25400
Ni228      Ni  0.46649965  0.52526226  0.44615900     1.25400
C229        C  0.45558904  0.96152781  0.38025347     0.89600
C230        C  0.03042138  0.53725524  0.51118735     0.89600
C231        C  0.45030750  0.95871615  0.50559839     0.89600
C232        C  0.03459605  0.53995569  0.38441978     0.89800
C233        C  0.29690153  0.64803214  0.10235778     0.82100
N234        N  0.33276935  0.66406977  0.12018956    -0.76200
C235        C  0.34957017  0.69971363  0.10351587     0.84600
N236        N  0.33044309  0.71941065  0.06870358    -0.76100
C237        C  0.29442136  0.70346462  0.05070996     0.84600
N238        N  0.27778529  0.66770725  0.06762940    -0.77900
C239        C  0.05926208  0.61469023  0.29142822     0.82100
N240        N  0.04008483  0.59602954  0.32831205    -0.76200
C241        C  0.05685754  0.56172712  0.34651559     0.84600
N242        N  0.09264329  0.54601591  0.32719468    -0.76100
C243        C  0.11169627  0.56473454  0.29028272     0.84600
N244        N  0.09491013  0.59890987  0.27238955    -0.77900
C245        C  0.16698712  0.88216102  0.09093638     0.82100
N246        N  0.18734150  0.86179302  0.05579143    -0.76200
C247        C  0.17160242  0.82549800  0.03909442     0.84600
N248        N  0.13564884  0.80943613  0.05821547    -0.76100
C249        C  0.11522554  0.82955655  0.09338329     0.84600
N250        N  0.13119534  0.86570454  0.11014706    -0.77900
C251        C  0.43179446  0.88498133  0.28795378     0.82100
N252        N  0.45021078  0.90405403  0.32460742    -0.76200
C253        C  0.43494367  0.94024269  0.34152710     0.84600
N254        N  0.40137720  0.95732152  0.32134276    -0.76100
C255        C  0.38313939  0.93821737  0.28461935     0.84600
N256        N  0.39837839  0.90213671  0.26791816    -0.77900
C257        C  0.00990880  0.71258243  0.22421132     0.88400
C258        C  0.04226861  0.73271106  0.19104487    -0.51900
C259        C  0.02658307  0.76446155  0.16664387     0.11300
C260        C  0.47983372  0.77279907  0.17720603     0.22300
C261        C  0.49333456  0.74789823  0.25495435    -0.52600
C262        C  0.47767605  0.77937393  0.23018117     0.11400
C263        C  0.47305408  0.69959623  0.19380303    -0.52100
C264        C  0.45714895  0.73112631  0.16930778     0.12000
H265        H  0.07494823  0.72364457  0.18830939     0.16500
H266        H  0.46695365  0.79861976  0.15735208     0.02200
H267        H  0.49421330  0.74817263  0.29268612     0.16800
H268        H  0.45997986  0.66850794  0.19268390     0.16600
C269        C  0.28445935  0.98749070  0.21713416     0.88400
C270        C  0.29701292  0.52433984  0.18713710    -0.51900
C271        C  0.26439544  0.54014763  0.16374430     0.11300
C272        C  0.22210697  0.51722557  0.17217755     0.22300
C273        C  0.24860489  0.50266212  0.24900495    -0.52600
C274        C  0.21599308  0.51818629  0.22538704     0.11400
C275        C  0.26403138  0.95627634  0.18401723    -0.52100
C276        C  0.23117058  0.97166870  0.16061684     0.12000
H277        H  0.32857967  0.53759734  0.18568706     0.16500
H278        H  0.19537939  0.52999588  0.15320771     0.02200
H279        H  0.24893502  0.50125357  0.28670143     0.16800
H280        H  0.27374138  0.92445272  0.18057027     0.16600
C281        C  0.31947233  0.97079913  0.24246813    -0.11400
C282        C  0.34840645  0.95647132  0.26254186    -0.12900
C283        C  0.46154908  0.81610635  0.25196727    -0.11400
C284        C  0.44821476  0.84730643  0.26932254    -0.12900
C285        C  0.20528872  0.94517759  0.13191027    -0.11400
C286        C  0.18623085  0.91825544  0.11156201    -0.12900
C287        C  0.07983786  0.80984489  0.11639048    -0.11400
C288        C  0.05345177  0.79018641  0.13769394    -0.12900
C289        C  0.02675214  0.67856052  0.25063819    -0.11400
C290        C  0.04098552  0.64985104  0.27074296    -0.12900
C291        C  0.14853408  0.54758962  0.26861174    -0.11400
C292        C  0.17916372  0.53404958  0.24883544    -0.12900
C293        C  0.26978616  0.57763608  0.13775744    -0.11400
C294        C  0.27991944  0.60984940  0.11995927    -0.12900
C295        C  0.38789813  0.71587094  0.12267509    -0.11400
C296        C  0.41997494  0.72536955  0.14198457    -0.12900
C297        C  0.33090456  0.94895865  0.61365621    -0.11400
C298        C  0.30359367  0.96664823  0.63535149    -0.12900
C299        C  0.43733045  0.84449301  0.61270388    -0.11400
C300        C  0.45260942  0.81617187  0.63260042    -0.12900
C301        C  0.19715098  0.89968483  0.76143808    -0.11400
C302        C  0.21054073  0.93142852  0.74521964    -0.13700
C303        C  0.09250392  0.79074643  0.76293894    -0.11400
C304        C  0.06136855  0.77891817  0.74346403    -0.12900
C305        C  0.14131827  0.54253898  0.62546085    -0.11400
C306        C  0.17197260  0.53075222  0.64501802    -0.12900
C307        C  0.03594740  0.64852146  0.62633281    -0.11400
C308        C  0.02095429  0.67958954  0.64265485    -0.12900
C309        C  0.29314307  0.59774796  0.78236624    -0.11400
C310        C  0.27832266  0.56939957  0.76051315    -0.12900
C311        C  0.40253169  0.70126902  0.78288436    -0.11400
C312        C  0.42980801  0.71688237  0.75895953    -0.12900
C313        C  0.81147833  0.13366287  0.80365298     0.82100
N314        N  0.84900594  0.14826080  0.78730503    -0.76200
C315        C  0.86529733  0.18396076  0.80442826     0.84600
N316        N  0.84346797  0.20567876  0.83732361    -0.76100
C317        C  0.80572580  0.19120652  0.85385267     0.84600
N318        N  0.78969605  0.15522051  0.83667587    -0.77900
C319        C  0.55350601  0.11160683  0.60622524     0.82100
N320        N  0.53501059  0.09302288  0.56928464    -0.76200
C321        C  0.55126587  0.05803187  0.55029519     0.84600
N322        N  0.58612100  0.04159239  0.56864977    -0.76100
C323        C  0.60467957  0.06009333  0.60560896     0.84600
N324        N  0.58831482  0.09509365  0.62437075    -0.77900
C325        C  0.62940406  0.30941419  0.78235150     0.82100
N326        N  0.64762690  0.29281286  0.81969959    -0.76200
C327        C  0.68239914  0.31097645  0.83804249     0.84600
N328        N  0.69878435  0.34584764  0.81874837    -0.76100
C329        C  0.68046291  0.36244805  0.78140188     0.84600
N330        N  0.64581606  0.34422211  0.76330287    -0.77900
C331        C  0.86752045  0.43064439  0.59234351     0.82100
N332        N  0.88918573  0.45084354  0.55825151    -0.76200
C333        C  0.92598022  0.43571252  0.54089959     0.84600
N334        N  0.94122407  0.40041264  0.55819852    -0.76100
C335        C  0.91966911  0.38018669  0.59234163     0.84600
N336        N  0.88302783  0.39552581  0.60971615    -0.77900
C337        C  0.97065699  0.28412505  0.66112501     0.88400
C338        C  0.50826938  0.29961953  0.68893053    -0.51900
C339        C  0.52476711  0.27035759  0.71627227     0.11300
C340        C  0.50209317  0.22824913  0.71354150     0.22300
C341        C  0.98660918  0.24638607  0.63375927    -0.52600
C342        C  0.50315936  0.21714813  0.66133070     0.11400
C343        C  0.93932181  0.26702158  0.69728914    -0.52100
C344        C  0.95569563  0.23780020  0.72471275     0.12000
H345        H  0.52100781  0.33078905  0.68683260     0.16500
H346        H  0.51550044  0.20440975  0.73590421     0.02200
H347        H  0.98525816  0.24322311  0.59620900     0.16800
H348        H  0.90686266  0.27676810  0.70056174     0.16600
C349        C  0.76075842  0.03716452  0.73024251     0.88400
C350        C  0.72445739  0.05206932  0.70133602    -0.51900
C351        C  0.70799538  0.02245776  0.67284589     0.11300
C352        C  0.72963528  0.48042685  0.67571310     0.22300
C353        C  0.74323532  0.99963720  0.75634195    -0.52600
C354        C  0.72705486  0.46989700  0.72770862     0.11400
C355        C  0.79284051  0.01986472  0.69499006    -0.52100
C356        C  0.77667501  0.48995452  0.66661334     0.12000
H357        H  0.71237871  0.08313452  0.70371335     0.16500
H358        H  0.71636474  0.45609404  0.65258368     0.02200
H359        H  0.74403453  0.99660685  0.79386566     0.16800
H360        H  0.82575460  0.02931510  0.69372546     0.16600
O361        O  0.79556649  0.25062803  0.90163962    -0.72500
O362        O  0.73077832  0.31564984  0.98834330    -0.72600
O363        O  0.79000155  0.25717212  0.99557754    -0.72600
O364        O  0.73612634  0.30876138  0.89414172    -0.72700
O365        O  0.68610832  0.25987038  0.89570919    -0.72600
O366        O  0.73984039  0.20841361  0.99659398    -0.72600
O367        O  0.68071695  0.26681079  0.98977026    -0.72600
O368        O  0.74544844  0.20183551  0.90279336    -0.72600
Ni369      Ni  0.76487440  0.28483719  0.94488054     1.25400
Ni370      Ni  0.71121593  0.23254661  0.94628378     1.25400
C371        C  0.78115966  0.21561874  0.88788773     0.89600
C372        C  0.69531443  0.30172547  0.00371045     0.89600
C373        C  0.77378605  0.22413006  0.01255500     0.89600
C374        C  0.70246034  0.29246912  0.87798418     0.89800
O375        O  0.98923880  0.44671439  0.39625867    -0.72500
O376        O  0.54600731  0.00415126  0.49400233    -0.72600
O377        O  0.98551949  0.44478060  0.49034229    -0.72600
O378        O  0.54928216  0.00626416  0.39941291    -0.72700
O379        O  0.00001127  0.05432390  0.40081337    -0.72600
O380        O  0.93616149  0.49275278  0.49109905    -0.72600
O381        O  0.99664846  0.05211769  0.49536096    -0.72600
O382        O  0.94005375  0.49486730  0.39696686    -0.72600
Ni383      Ni  0.51931547  0.47381207  0.44501014     1.25400
Ni384      Ni  0.96649954  0.02526229  0.44615899     1.25400
C385        C  0.95558908  0.46152783  0.38025345     0.89600
C386        C  0.53042133  0.03725528  0.51118733     0.89600
C387        C  0.95030749  0.45871611  0.50559834     0.89600
C388        C  0.53459593  0.03995576  0.38441979     0.89800
C389        C  0.79690155  0.14803205  0.10235772     0.82100
N390        N  0.83276930  0.16406973  0.12018958    -0.76200
C391        C  0.84957013  0.19971363  0.10351589     0.84600
N392        N  0.83044304  0.21941058  0.06870356    -0.76100
C393        C  0.79442128  0.20346461  0.05071001     0.84600
N394        N  0.77778521  0.16770719  0.06762941    -0.77900
C395        C  0.55926208  0.11469024  0.29142818     0.82100
N396        N  0.54008478  0.09602960  0.32831205    -0.76200
C397        C  0.55685755  0.06172715  0.34651561     0.84600
N398        N  0.59264324  0.04601597  0.32719473    -0.76100
C399        C  0.61169629  0.06473459  0.29028273     0.84600
N400        N  0.59491009  0.09890991  0.27238956    -0.77900
C401        C  0.66698719  0.38216105  0.09093637     0.82100
N402        N  0.68734154  0.36179307  0.05579141    -0.76200
C403        C  0.67160249  0.32549799  0.03909444     0.84600
N404        N  0.63564894  0.30943614  0.05821551    -0.76100
C405        C  0.61522558  0.32955661  0.09338324     0.84600
N406        N  0.63119536  0.36570460  0.11014701    -0.77900
C407        C  0.93179444  0.38498132  0.28795382     0.82100
N408        N  0.95021079  0.40405401  0.32460740    -0.76200
C409        C  0.93494372  0.44024271  0.34152709     0.84600
N410        N  0.90137720  0.45732151  0.32134276    -0.76100
C411        C  0.88313936  0.43821737  0.28461940     0.84600
N412        N  0.89837837  0.40213667  0.26791818    -0.77900
C413        C  0.50990878  0.21258247  0.22421133     0.88400
C414        C  0.54226858  0.23271111  0.19104486    -0.51900
C415        C  0.52658307  0.26446161  0.16664388     0.11300
C416        C  0.97983364  0.27279915  0.17720601     0.22300
C417        C  0.99333458  0.24789828  0.25495436    -0.52600
C418        C  0.97767602  0.27937393  0.23018117     0.11400
C419        C  0.97305399  0.19959628  0.19380307    -0.52100
C420        C  0.95714890  0.23112635  0.16930781     0.12000
H421        H  0.57494817  0.22364460  0.18830939     0.16500
H422        H  0.96695360  0.29861967  0.15735221     0.02200
H423        H  0.99421340  0.24817271  0.29268606     0.16800
H424        H  0.95997977  0.16850797  0.19268391     0.16600
C425        C  0.78445935  0.48749070  0.21713412     0.88400
C426        C  0.79701283  0.02433976  0.18713708    -0.51900
C427        C  0.76439546  0.04014755  0.16374429     0.11300
C428        C  0.72210696  0.01722550  0.17217754     0.22300
C429        C  0.74860487  0.00266204  0.24900497    -0.52600
C430        C  0.71599308  0.01818627  0.22538705     0.11400
C431        C  0.76403128  0.45627644  0.18401721    -0.52100
C432        C  0.73117054  0.47166875  0.16061685     0.12000
H433        H  0.82858005  0.03759747  0.18568698     0.16500
H434        H  0.69537948  0.02999576  0.15320776     0.02200
H435        H  0.74893496  0.00125337  0.28670140     0.16800
H436        H  0.77374131  0.42445248  0.18057015     0.16600
C437        C  0.81947223  0.47079899  0.24246811    -0.11400
C438        C  0.84840637  0.45647128  0.26254190    -0.12900
C439        C  0.96154903  0.31610633  0.25196728    -0.11400
C440        C  0.94821475  0.34730638  0.26932255    -0.12900
C441        C  0.70528868  0.44517767  0.13191027    -0.11400
C442        C  0.68623092  0.41825545  0.11156201    -0.12900
C443        C  0.57983797  0.30984488  0.11639050    -0.11400
C444        C  0.55345185  0.29018644  0.13769398    -0.12900
C445        C  0.52675212  0.17856056  0.25063820    -0.11400
C446        C  0.54098555  0.14985111  0.27074296    -0.12900
C447        C  0.64853404  0.04758965  0.26861171    -0.11400
C448        C  0.67916370  0.03404959  0.24883542    -0.12900
C449        C  0.76978620  0.07763600  0.13775745    -0.11400
C450        C  0.77991946  0.10984928  0.11995924    -0.12900
C451        C  0.88789815  0.21587093  0.12267502    -0.11400
C452        C  0.91997497  0.22536958  0.14198448    -0.12900
C453        C  0.83090457  0.44895872  0.61365620    -0.11400
C454        C  0.80359371  0.46664828  0.63535150    -0.12900
C455        C  0.93733034  0.34449302  0.61270391    -0.11400
C456        C  0.95260936  0.31617187  0.63260042    -0.12900
C457        C  0.69715095  0.39968487  0.76143811    -0.11400
C458        C  0.71054065  0.43142854  0.74521961    -0.13700
C459        C  0.59250398  0.29074649  0.76293889    -0.11400
C460        C  0.56136856  0.27891820  0.74346404    -0.12900
C461        C  0.64131826  0.04253891  0.62546082    -0.11400
C462        C  0.67197257  0.03075219  0.64501804    -0.12900
C463        C  0.53594732  0.14852145  0.62633282    -0.11400
C464        C  0.52095422  0.17958951  0.64265486    -0.12900
C465        C  0.79314297  0.09774803  0.78236623    -0.11400
C466        C  0.77832265  0.06939961  0.76051312    -0.12900
C467        C  0.90253167  0.20126906  0.78288434    -0.11400
C468        C  0.92980807  0.21688241  0.75895956    -0.12900
C469        C  0.81147841  0.63366281  0.80365304     0.82100
N470        N  0.84900601  0.64826076  0.78730504    -0.76200
C471        C  0.86529733  0.68396075  0.80442827     0.84600
N472        N  0.84346802  0.70567876  0.83732357    -0.76100
C473        C  0.80572581  0.69120655  0.85385263     0.84600
N474        N  0.78969612  0.65522048  0.83667584    -0.77900
C475        C  0.55350601  0.61160686  0.60622521     0.82100
N476        N  0.53501054  0.59302286  0.56928459    -0.76200
C477        C  0.55126593  0.55803182  0.55029523     0.84600
N478        N  0.58612096  0.54159240  0.56864981    -0.76100
C479        C  0.60467958  0.56009336  0.60560903     0.84600
N480        N  0.58831473  0.59509370  0.62437073    -0.77900
C481        C  0.62940410  0.80941413  0.78235152     0.82100
N482        N  0.64762698  0.79281280  0.81969955    -0.76200
C483        C  0.68239922  0.81097643  0.83804248     0.84600
N484        N  0.69878439  0.84584761  0.81874832    -0.76100
C485        C  0.68046291  0.86244804  0.78140190     0.84600
N486        N  0.64581601  0.84422210  0.76330292    -0.77900
C487        C  0.86752040  0.93064434  0.59234350     0.82100
N488        N  0.88918567  0.95084346  0.55825147    -0.76200
C489        C  0.92598015  0.93571259  0.54089958     0.84600
N490        N  0.94122414  0.90041268  0.55819852    -0.76100
C491        C  0.91966918  0.88018673  0.59234162     0.84600
N492        N  0.88302792  0.89552575  0.60971617    -0.77900
C493        C  0.97065695  0.78412503  0.66112504     0.88400
C494        C  0.50826934  0.79961946  0.68893059    -0.51900
C495        C  0.52476709  0.77035758  0.71627231     0.11300
C496        C  0.50209317  0.72824910  0.71354149     0.22300
C497        C  0.98660915  0.74638607  0.63375929    -0.52600
C498        C  0.50315938  0.71714816  0.66133067     0.11400
C499        C  0.93932180  0.76702153  0.69728915    -0.52100
C500        C  0.95569558  0.73780013  0.72471272     0.12000
H501        H  0.52100789  0.83078929  0.68683261     0.16500
H502        H  0.51550046  0.70440971  0.73590418     0.02200
H503        H  0.98525806  0.74322316  0.59620897     0.16800
H504        H  0.90686245  0.77676815  0.70056179     0.16600
C505        C  0.76075836  0.53716450  0.73024255     0.88400
C506        C  0.72445725  0.55206958  0.70133607    -0.51900
C507        C  0.70799538  0.52245776  0.67284586     0.11300
C508        C  0.72963525  0.98042682  0.67571313     0.22300
C509        C  0.74323527  0.49963718  0.75634195    -0.52600
C510        C  0.72705480  0.96989704  0.72770865     0.11400
C511        C  0.79284045  0.51986476  0.69499009    -0.52100
C512        C  0.77667502  0.98995448  0.66661335     0.12000
H513        H  0.71237908  0.58313346  0.70371326     0.16500
H514        H  0.71636469  0.95609405  0.65258375     0.02200
H515        H  0.74403445  0.49660676  0.79386570     0.16800
H516        H  0.82575452  0.52931514  0.69372553     0.16600
O517        O  0.79556654  0.75062803  0.90163965    -0.72500
O518        O  0.73077830  0.81564982  0.98834333    -0.72600
O519        O  0.79000146  0.75717213  0.99557757    -0.72600
O520        O  0.73612639  0.80876140  0.89414173    -0.72700
O521        O  0.68610842  0.75987038  0.89570918    -0.72600
O522        O  0.73984040  0.70841355  0.99659396    -0.72600
O523        O  0.68071690  0.76681084  0.98977017    -0.72600
O524        O  0.74544855  0.70183548  0.90279340    -0.72600
Ni525      Ni  0.76487436  0.78483716  0.94488056     1.25400
Ni526      Ni  0.71121597  0.73254660  0.94628376     1.25400
C527        C  0.78115975  0.71561874  0.88788772     0.89600
C528        C  0.69531436  0.80172547  0.00371042     0.89600
C529        C  0.77378598  0.72413001  0.01255500     0.89600
C530        C  0.70246039  0.79246915  0.87798419     0.89800
O531        O  0.98923868  0.94671437  0.39625870    -0.72500
O532        O  0.54600744  0.50415121  0.49400235    -0.72600
O533        O  0.98551943  0.94478072  0.49034236    -0.72600
O534        O  0.54928224  0.50626413  0.39941292    -0.72700
O535        O  0.00001138  0.55432387  0.40081340    -0.72600
O536        O  0.93616134  0.99275281  0.49109901    -0.72600
O537        O  0.99664849  0.55211763  0.49536100    -0.72600
O538        O  0.94005363  0.99486730  0.39696687    -0.72600
Ni539      Ni  0.51931540  0.97381211  0.44501014     1.25400
Ni540      Ni  0.96649965  0.52526225  0.44615900     1.25400
C541        C  0.95558901  0.96152781  0.38025348     0.89600
C542        C  0.53042141  0.53725525  0.51118732     0.89600
C543        C  0.95030743  0.95871614  0.50559835     0.89600
C544        C  0.53459599  0.53995570  0.38441976     0.89800
C545        C  0.79690149  0.64803213  0.10235777     0.82100
N546        N  0.83276930  0.66406977  0.12018951    -0.76200
C547        C  0.84957007  0.69971368  0.10351590     0.84600
N548        N  0.83044291  0.71941068  0.06870361    -0.76100
C549        C  0.79442126  0.70346465  0.05071000     0.84600
N550        N  0.77778515  0.66770723  0.06762943    -0.77900
C551        C  0.55926212  0.61469022  0.29142822     0.82100
N552        N  0.54008484  0.59602956  0.32831204    -0.76200
C553        C  0.55685756  0.56172709  0.34651558     0.84600
N554        N  0.59264329  0.54601591  0.32719470    -0.76100
C555        C  0.61169631  0.56473453  0.29028273     0.84600
N556        N  0.59491016  0.59890987  0.27238956    -0.77900
C557        C  0.66698716  0.88216102  0.09093638     0.82100
N558        N  0.68734154  0.86179302  0.05579143    -0.76200
C559        C  0.67160245  0.82549800  0.03909442     0.84600
N560        N  0.63564888  0.80943613  0.05821547    -0.76100
C561        C  0.61522557  0.82955655  0.09338329     0.84600
N562        N  0.63119537  0.86570454  0.11014706    -0.77900
C563        C  0.93179449  0.88498134  0.28795378     0.82100
N564        N  0.95021081  0.90405404  0.32460742    -0.76200
C565        C  0.93494367  0.94024271  0.34152709     0.84600
N566        N  0.90137722  0.95732152  0.32134275    -0.76100
C567        C  0.88313942  0.93821737  0.28461934     0.84600
N568        N  0.89837842  0.90213670  0.26791816    -0.77900
C569        C  0.50990884  0.71258244  0.22421132     0.88400
C570        C  0.54226866  0.73271109  0.19104488    -0.51900
C571        C  0.52658309  0.76446156  0.16664388     0.11300
C572        C  0.97983371  0.77279907  0.17720602     0.22300
C573        C  0.99333457  0.74789823  0.25495434    -0.52600
C574        C  0.97767608  0.77937394  0.23018117     0.11400
C575        C  0.97305395  0.69959618  0.19380306    -0.52100
C576        C  0.95714891  0.73112633  0.16930778     0.12000
H577        H  0.57494826  0.72364460  0.18830939     0.16500
H578        H  0.96695367  0.79861976  0.15735209     0.02200
H579        H  0.99421334  0.74817264  0.29268614     0.16800
H580        H  0.95997982  0.66850829  0.19268396     0.16600
C581        C  0.78445939  0.98749070  0.21713416     0.88400
C582        C  0.79701290  0.52433985  0.18713708    -0.51900
C583        C  0.76439544  0.54014763  0.16374431     0.11300
C584        C  0.72210685  0.51722560  0.17217749     0.22300
C585        C  0.74860490  0.50266213  0.24900494    -0.52600
C586        C  0.71599309  0.51818627  0.22538705     0.11400
C587        C  0.76403141  0.95627634  0.18401723    -0.52100
C588        C  0.73117061  0.97166870  0.16061684     0.12000
H589        H  0.82857968  0.53759735  0.18568704     0.16500
H590        H  0.69537975  0.52999565  0.15320805     0.02200
H591        H  0.74893506  0.50125358  0.28670141     0.16800
H592        H  0.77374141  0.92445272  0.18057027     0.16600
C593        C  0.81947236  0.97079913  0.24246813    -0.11400
C594        C  0.84840648  0.95647132  0.26254186    -0.12900
C595        C  0.96154912  0.81610636  0.25196727    -0.11400
C596        C  0.94821479  0.84730643  0.26932254    -0.12900
C597        C  0.70528875  0.94517759  0.13191027    -0.11400
C598        C  0.68623088  0.91825544  0.11156201    -0.12900
C599        C  0.57983790  0.80984488  0.11639048    -0.11400
C600        C  0.55345179  0.79018641  0.13769394    -0.12900
C601        C  0.52675218  0.67856053  0.25063819    -0.11400
C602        C  0.54098555  0.64985104  0.27074296    -0.12900
C603        C  0.64853410  0.54758962  0.26861175    -0.11400
C604        C  0.67916374  0.53404958  0.24883546    -0.12900
C605        C  0.76978617  0.57763607  0.13775744    -0.11400
C606        C  0.77991945  0.60984938  0.11995927    -0.12900
C607        C  0.88789808  0.71587096  0.12267506    -0.11400
C608        C  0.91997491  0.72536956  0.14198451    -0.12900
C609        C  0.83090458  0.94895864  0.61365624    -0.11400
C610        C  0.80359367  0.96664822  0.63535150    -0.12900
C611        C  0.93733048  0.84449303  0.61270387    -0.11400
C612        C  0.95260941  0.81617186  0.63260042    -0.12900
C613        C  0.69715095  0.89968484  0.76143808    -0.11400
C614        C  0.71054057  0.93142856  0.74521963    -0.13700
C615        C  0.59250395  0.79074643  0.76293893    -0.11400
C616        C  0.56136858  0.77891816  0.74346404    -0.12900
C617        C  0.64131824  0.54253901  0.62546084    -0.11400
C618        C  0.67197261  0.53075223  0.64501801    -0.12900
C619        C  0.53594719  0.64852142  0.62633280    -0.11400
C620        C  0.52095408  0.67958948  0.64265484    -0.12900
C621        C  0.79314310  0.59774796  0.78236624    -0.11400
C622        C  0.77832270  0.56939957  0.76051315    -0.12900
C623        C  0.90253161  0.70126905  0.78288430    -0.11400
C624        C  0.92980798  0.71688237  0.75895952    -0.12900
loop_ 
_geom_bond_atom_site_label_1 
_geom_bond_atom_site_label_2 
_geom_bond_distance 
_geom_bond_site_symmetry_2 
_ccdc_geom_bond_type 
C1            N2   1.355       .  A
C1            N6   1.357       .  A
C1          C153   1.433       .  S
N2            C3   1.355       .  A
C3            N4   1.358       .  A
C3          C155   1.435       .  S
N4            C5   1.361       .  A
C5            N6   1.360       .  A
C5           C59   1.471       .  S
C7            N8   1.358       .  A
C7           N12   1.358       .  A
C7          C151   1.440       .  S
N8            C9   1.360       .  A
C9           N10   1.361       .  A
C9           C74   1.471       .  S
N10          C11   1.358       .  A
C11          N12   1.359       .  A
C11         C149   1.441       .  S
C13          N14   1.357       .  A
C13          N18   1.356       .  A
C13         C147   1.435       .  S
N14          C15   1.360       .  A
C15          N16   1.360       .  A
C15          C62   1.469       .  S
N16          C17   1.358       .  A
C17          N18   1.355       .  A
C17         C145   1.436       .  S
C19          N20   1.357       .  A
C19          N24   1.358       .  A
C19         C141   1.438       .  S
N20          C21   1.360       .  A
C21          N22   1.359       .  A
C21          C75   1.469       .  S
N22          C23   1.357       .  A
C23          N24   1.358       .  A
C23         C143   1.436       .  S
C25          C31   1.529       .  S
C25          C29   1.536       .  S
C25         C338   1.531       .  S
C25         C144   1.468       .  S
C26         C337   1.531   1_455  S
C26          H33   1.087       .  S
C26          C27   1.363       .  D
C27          C28   1.539       .  S
C27         C148   1.441       .  S
C28          C30   1.541       .  S
C28         C344   1.540   1_455  S
C28          H34   1.111       .  S
C29          H35   1.086       .  S
C29         C342   1.367       .  D
C30         C341   1.367   1_455  D
C30         C152   1.446       .  S
C31          H36   1.088       .  S
C31          C32   1.362       .  D
C32         C340   1.540       .  S
C32         C156   1.441       .  S
C37          C38   1.529       .  S
C37          C43   1.531       .  S
C37          C41   1.532   1_545  S
C37         C154   1.466       .  S
C38          H45   1.087       .  S
C38          C39   1.362       .  D
C39         C196   1.544   1_545  S
C39         C150   1.446       .  S
C40          C44   1.542       .  S
C40          C42   1.540       .  S
C40         C195   1.544       .  S
C40          H46   1.111       .  S
C41          H47   1.087       .  S
C41         C198   1.364       .  D
C42         C197   1.364       .  D
C42         C146   1.441       .  S
C43          H48   1.087       .  S
C43         C200   1.363   1_545  D
C44         C199   1.363       .  D
C44         C142   1.444       .  S
O49         Ni57   1.919       .  S
O49          C59   1.281       .  A
O50         Ni57   1.919       .  S
O50          C60   1.281   1_556  A
O51         Ni57   1.922       .  S
O51          C61   1.282   1_556  A
O52         Ni57   1.922       .  S
O52          C62   1.282       .  A
O53         Ni58   1.914       .  S
O53          C62   1.280       .  A
O54         Ni58   1.914       .  S
O54          C61   1.280   1_556  A
O55         Ni58   1.921       .  S
O55          C60   1.282   1_556  A
O56         Ni58   1.921       .  S
O56          C59   1.282       .  A
Ni57        Ni58   2.390       .  S
C60          C91   1.472       .  S
C61          C81   1.469       .  S
O63        Ni383   1.914       .  S
O63          C73   1.280       .  A
O64        Ni227   1.917   1_545  S
O64          C74   1.281       .  A
O65        Ni383   1.920       .  S
O65          C75   1.282       .  A
O66        Ni227   1.922   1_545  S
O66          C76   1.282       .  A
O67         Ni72   1.916       .  S
O67         C388   1.280       .  A
O68        Ni228   1.916       .  S
O68          C75   1.280       .  A
O69         Ni72   1.922       .  S
O69         C386   1.282       .  A
O70        Ni228   1.919       .  S
O70          C73   1.282       .  A
Ni71        O375   1.914   1_455  S
Ni71        O220   1.917       .  S
Ni71        O377   1.920   1_455  S
Ni71        O222   1.922       .  S
Ni71       Ni540   2.391   1_455  S
Ni72        O224   1.916   1_545  S
Ni72        O226   1.919   1_545  S
Ni72       Ni539   2.391   1_545  S
C73          C97   1.467       .  S
C74         O381   1.282   1_455  A
C76          C85   1.471       .  S
C76         O379   1.280       .  A
C77          N78   1.357       .  A
C77          N82   1.356       .  A
C77         C138   1.440       .  S
N78          C79   1.357       .  A
C79          N80   1.358       .  A
C79         C139   1.440       .  S
N80          C81   1.361       .  A
C81          N82   1.361       .  A
C83          N84   1.358       .  A
C83          N88   1.354       .  A
C83         C134   1.434       .  S
N84          C85   1.361       .  A
C85          N86   1.360       .  A
N86          C87   1.358       .  A
C87          N88   1.354       .  A
C87         C135   1.433       .  S
C89          N90   1.359       .  A
C89          N94   1.360       .  A
C89         C130   1.442       .  S
N90          C91   1.360       .  A
C91          N92   1.358       .  A
N92          C93   1.356       .  A
C93          N94   1.360       .  A
C93         C131   1.439       .  S
C95          N96   1.357       .  A
C95         N100   1.354       .  A
C95         C128   1.432       .  S
N96          C97   1.360       .  A
C97          N98   1.359       .  A
N98          C99   1.356       .  A
C99         N100   1.354       .  A
C99         C126   1.430       .  S
C101        C102   1.533       .  S
C101        C419   1.531   1_455  S
C101        C417   1.533   1_455  S
C101        C133   1.467       .  S
C102        H109   1.087       .  S
C102        C103   1.365       .  D
C103        C416   1.540   1_455  S
C103        C132   1.445       .  S
C104        C108   1.541       .  S
C104        C106   1.537       .  S
C104        C415   1.540       .  S
C104        H110   1.111       .  S
C105        C413   1.533       .  S
C105        H111   1.087       .  S
C105        C106   1.363       .  D
C106        C127   1.438       .  S
C107        C413   1.531       .  S
C107        H112   1.087       .  S
C107        C108   1.363       .  D
C108        C140   1.445       .  S
C113        C119   1.530       .  S
C113        C270   1.529       .  S
C113        C273   1.531       .  S
C113        C125   1.462       .  S
C114        C269   1.529   1_545  S
C114        H121   1.087       .  S
C114        C115   1.363       .  D
C115        C116   1.544       .  S
C115        C137   1.445       .  S
C116        C118   1.540       .  S
C116        C276   1.544   1_545  S
C116        H122   1.111       .  S
C117        C269   1.531   1_545  S
C117        H123   1.087       .  S
C117        C118   1.362       .  D
C118        C136   1.439       .  S
C119        H124   1.087       .  S
C119        C120   1.364       .  D
C120        C272   1.544       .  S
C120        C129   1.447       .  S
C125        C126   1.203       .  T
C127        C128   1.203       .  T
C129        C130   1.209       .  T
C131        C132   1.208       .  T
C133        C134   1.205       .  T
C135        C136   1.204       .  T
C137        C138   1.208       .  T
C139        C140   1.208       .  T
C141        C142   1.207       .  T
C143        C144   1.206       .  T
C145        C146   1.206       .  T
C147        C148   1.205       .  T
C149        C150   1.209       .  T
C151        C152   1.209       .  T
C153        C154   1.205       .  T
C155        C156   1.205       .  T
C157        N158   1.355       .  A
C157        N162   1.357       .  A
C157        C309   1.433       .  S
N158        C159   1.355       .  A
C159        N160   1.358       .  A
C159        C311   1.435       .  S
N160        C161   1.361       .  A
C161        N162   1.360       .  A
C161        C215   1.471       .  S
C163        N164   1.358       .  A
C163        N168   1.358       .  A
C163        C307   1.440       .  S
N164        C165   1.360       .  A
C165        N166   1.361       .  A
C165        C230   1.471       .  S
N166        C167   1.358       .  A
C167        N168   1.359       .  A
C167        C305   1.441       .  S
C169        N170   1.357       .  A
C169        N174   1.356       .  A
C169        C303   1.435       .  S
N170        C171   1.360       .  A
C171        N172   1.360       .  A
C171        C218   1.469       .  S
N172        C173   1.358       .  A
C173        N174   1.355       .  A
C173        C301   1.436       .  S
C175        N176   1.357       .  A
C175        N180   1.358       .  A
C175        C297   1.438       .  S
N176        C177   1.360       .  A
C177        N178   1.359       .  A
C177        C231   1.469       .  S
N178        C179   1.357       .  A
C179        N180   1.358       .  A
C179        C299   1.436       .  S
C181        C494   1.531       .  S
C181        C187   1.529       .  S
C181        C185   1.536       .  S
C181        C300   1.468       .  S
C182        C493   1.531   1_455  S
C182        H189   1.087       .  S
C182        C183   1.363       .  D
C183        C184   1.539       .  S
C183        C304   1.441       .  S
C184        C500   1.540   1_455  S
C184        C186   1.541       .  S
C184        H190   1.111       .  S
C185        H191   1.086       .  S
C185        C498   1.367       .  D
C186        C497   1.367   1_455  D
C186        C308   1.446       .  S
C187        H192   1.088       .  S
C187        C188   1.362       .  D
C188        C496   1.540       .  S
C188        C312   1.441       .  S
C193        C194   1.529       .  S
C193        C199   1.531       .  S
C193        C197   1.532       .  S
C193        C310   1.466       .  S
C194        H201   1.087       .  S
C194        C195   1.362       .  D
C195        C306   1.446       .  S
C196        C200   1.542       .  S
C196        C198   1.540       .  S
C196        H202   1.111       .  S
C197        H203   1.087       .  S
C198        C302   1.441       .  S
C199        H204   1.087       .  S
C200        C298   1.444       .  S
O205       Ni213   1.919       .  S
O205        C215   1.281       .  A
O206       Ni213   1.919       .  S
O206        C216   1.281   1_556  A
O207       Ni213   1.922       .  S
O207        C217   1.282   1_556  A
O208       Ni213   1.922       .  S
O208        C218   1.282       .  A
O209       Ni214   1.914       .  S
O209        C218   1.280       .  A
O210       Ni214   1.914       .  S
O210        C217   1.280   1_556  A
O211       Ni214   1.921       .  S
O211        C216   1.282   1_556  A
O212       Ni214   1.921       .  S
O212        C215   1.282       .  A
Ni213      Ni214   2.390       .  S
C216        C247   1.472       .  S
C217        C237   1.469       .  S
O219       Ni539   1.914       .  S
O219        C229   1.280       .  A
O220        C230   1.281       .  A
O221       Ni539   1.920       .  S
O221        C231   1.282       .  A
O222        C232   1.282       .  A
O223       Ni228   1.916       .  S
O223        C544   1.280       .  A
O224        C231   1.280       .  A
O225       Ni228   1.922       .  S
O225        C542   1.282       .  A
O226        C229   1.282       .  A
Ni227       O531   1.914   1_455  S
Ni227       O533   1.920   1_455  S
Ni227      Ni384   2.391   1_465  S
Ni228      Ni383   2.391       .  S
C229        C253   1.467       .  S
C230        O537   1.282   1_455  A
C232        C241   1.471       .  S
C232        O535   1.280       .  A
C233        N234   1.357       .  A
C233        N238   1.356       .  A
C233        C294   1.439       .  S
N234        C235   1.357       .  A
C235        N236   1.358       .  A
C235        C295   1.440       .  S
N236        C237   1.361       .  A
C237        N238   1.361       .  A
C239        N240   1.358       .  A
C239        N244   1.354       .  A
C239        C290   1.434       .  S
N240        C241   1.361       .  A
C241        N242   1.360       .  A
N242        C243   1.358       .  A
C243        N244   1.354       .  A
C243        C291   1.433       .  S
C245        N246   1.359       .  A
C245        N250   1.360       .  A
C245        C286   1.442       .  S
N246        C247   1.360       .  A
C247        N248   1.358       .  A
N248        C249   1.356       .  A
C249        N250   1.360       .  A
C249        C287   1.439       .  S
C251        N252   1.357       .  A
C251        N256   1.354       .  A
C251        C284   1.432       .  S
N252        C253   1.360       .  A
C253        N254   1.359       .  A
N254        C255   1.356       .  A
C255        N256   1.354       .  A
C255        C282   1.430       .  S
C257        C258   1.533       .  S
C257        C575   1.531   1_455  S
C257        C573   1.533   1_455  S
C257        C289   1.467       .  S
C258        H265   1.087       .  S
C258        C259   1.365       .  D
C259        C572   1.540   1_455  S
C259        C288   1.445       .  S
C260        C571   1.540       .  S
C260        C264   1.541       .  S
C260        C262   1.537       .  S
C260        H266   1.111       .  S
C261        C569   1.533       .  S
C261        H267   1.087       .  S
C261        C262   1.363       .  D
C262        C283   1.438       .  S
C263        C569   1.531       .  S
C263        H268   1.087       .  S
C263        C264   1.363       .  D
C264        C296   1.445       .  S
C269        C275   1.530       .  S
C269        C281   1.462       .  S
C270        H277   1.087       .  S
C270        C271   1.363       .  D
C271        C272   1.544       .  S
C271        C293   1.445       .  S
C272        C274   1.540       .  S
C272        H278   1.111       .  S
C273        H279   1.087       .  S
C273        C274   1.362       .  D
C274        C292   1.439       .  S
C275        H280   1.087       .  S
C275        C276   1.364       .  D
C276        C285   1.447       .  S
C281        C282   1.203       .  T
C283        C284   1.203       .  T
C285        C286   1.209       .  T
C287        C288   1.208       .  T
C289        C290   1.205       .  T
C291        C292   1.204       .  T
C293        C294   1.208       .  T
C295        C296   1.208       .  T
C297        C298   1.207       .  T
C299        C300   1.206       .  T
C301        C302   1.206       .  T
C303        C304   1.205       .  T
C305        C306   1.209       .  T
C307        C308   1.209       .  T
C309        C310   1.205       .  T
C311        C312   1.205       .  T
C313        N314   1.355       .  A
C313        N318   1.357       .  A
C313        C465   1.433       .  S
N314        C315   1.355       .  A
C315        N316   1.358       .  A
C315        C467   1.435       .  S
N316        C317   1.361       .  A
C317        N318   1.360       .  A
C317        C371   1.471       .  S
C319        N320   1.358       .  A
C319        N324   1.358       .  A
C319        C463   1.440       .  S
N320        C321   1.360       .  A
C321        N322   1.361       .  A
C321        C386   1.471       .  S
N322        C323   1.358       .  A
C323        N324   1.359       .  A
C323        C461   1.441       .  S
C325        N326   1.357       .  A
C325        N330   1.356       .  A
C325        C459   1.435       .  S
N326        C327   1.360       .  A
C327        N328   1.360       .  A
C327        C374   1.469       .  S
N328        C329   1.358       .  A
C329        N330   1.355       .  A
C329        C457   1.436       .  S
C331        N332   1.357       .  A
C331        N336   1.358       .  A
C331        C453   1.438       .  S
N332        C333   1.360       .  A
C333        N334   1.359       .  A
C333        C387   1.469       .  S
N334        C335   1.357       .  A
C335        N336   1.358       .  A
C335        C455   1.436       .  S
C337        C343   1.529       .  S
C337        C341   1.536       .  S
C337        C456   1.468       .  S
C338        H345   1.087       .  S
C338        C339   1.363       .  D
C339        C340   1.539       .  S
C339        C460   1.441       .  S
C340        C342   1.541       .  S
C340        H346   1.111       .  S
C341        H347   1.086       .  S
C342        C464   1.446       .  S
C343        H348   1.088       .  S
C343        C344   1.362       .  D
C344        C468   1.441       .  S
C349        C350   1.529       .  S
C349        C355   1.531       .  S
C349        C353   1.532   1_545  S
C349        C466   1.466       .  S
C350        H357   1.087       .  S
C350        C351   1.362       .  D
C351        C508   1.544   1_545  S
C351        C462   1.446       .  S
C352        C507   1.544       .  S
C352        C356   1.542       .  S
C352        C354   1.540       .  S
C352        H358   1.111       .  S
C353        H359   1.087       .  S
C353        C510   1.364       .  D
C354        C509   1.364       .  D
C354        C458   1.441       .  S
C355        H360   1.087       .  S
C355        C512   1.363   1_545  D
C356        C511   1.363       .  D
C356        C454   1.444       .  S
O361       Ni369   1.919       .  S
O361        C371   1.281       .  A
O362       Ni369   1.919       .  S
O362        C372   1.281   1_556  A
O363       Ni369   1.922       .  S
O363        C373   1.282   1_556  A
O364       Ni369   1.922       .  S
O364        C374   1.282       .  A
O365       Ni370   1.914       .  S
O365        C374   1.280       .  A
O366       Ni370   1.914       .  S
O366        C373   1.280   1_556  A
O367       Ni370   1.921       .  S
O367        C372   1.282   1_556  A
O368       Ni370   1.921       .  S
O368        C371   1.282       .  A
Ni369      Ni370   2.390       .  S
C372        C403   1.472       .  S
C373        C393   1.469       .  S
O375        C385   1.280       .  A
O376       Ni539   1.917   1_545  S
O376        C386   1.281       .  A
O377        C387   1.282       .  A
O378       Ni539   1.922   1_545  S
O378        C388   1.282       .  A
O379       Ni384   1.916   1_455  S
O380       Ni540   1.916       .  S
O380        C387   1.280       .  A
O381       Ni384   1.922       .  S
O382       Ni540   1.919       .  S
O382        C385   1.282       .  A
Ni383       O532   1.917       .  S
Ni383       O534   1.922       .  S
Ni384       O536   1.916   1_545  S
Ni384       O538   1.919   1_545  S
C385        C409   1.467       .  S
C388        C397   1.471       .  S
C389        N390   1.357       .  A
C389        N394   1.356       .  A
C389        C450   1.440       .  S
N390        C391   1.357       .  A
C391        N392   1.358       .  A
C391        C451   1.440       .  S
N392        C393   1.361       .  A
C393        N394   1.361       .  A
C395        N396   1.358       .  A
C395        N400   1.354       .  A
C395        C446   1.434       .  S
N396        C397   1.361       .  A
C397        N398   1.360       .  A
N398        C399   1.358       .  A
C399        N400   1.354       .  A
C399        C447   1.433       .  S
C401        N402   1.359       .  A
C401        N406   1.360       .  A
C401        C442   1.442       .  S
N402        C403   1.360       .  A
C403        N404   1.358       .  A
N404        C405   1.356       .  A
C405        N406   1.360       .  A
C405        C443   1.439       .  S
C407        N408   1.357       .  A
C407        N412   1.354       .  A
C407        C440   1.432       .  S
N408        C409   1.360       .  A
C409        N410   1.359       .  A
N410        C411   1.356       .  A
C411        N412   1.354       .  A
C411        C438   1.430       .  S
C413        C414   1.533       .  S
C413        C445   1.467       .  S
C414        H421   1.087       .  S
C414        C415   1.365       .  D
C415        C444   1.445       .  S
C416        C420   1.541       .  S
C416        C418   1.537       .  S
C416        H422   1.111       .  S
C417        H423   1.087       .  S
C417        C418   1.363       .  D
C418        C439   1.438       .  S
C419        H424   1.087       .  S
C419        C420   1.363       .  D
C420        C452   1.445       .  S
C425        C582   1.529       .  S
C425        C431   1.530       .  S
C425        C585   1.531       .  S
C425        C437   1.462       .  S
C426        C581   1.529   1_545  S
C426        H433   1.087       .  S
C426        C427   1.363       .  D
C427        C428   1.544       .  S
C427        C449   1.445       .  S
C428        C588   1.544   1_545  S
C428        C430   1.540       .  S
C428        H434   1.111       .  S
C429        C581   1.531   1_545  S
C429        H435   1.087       .  S
C429        C430   1.362       .  D
C430        C448   1.439       .  S
C431        H436   1.087       .  S
C431        C432   1.364       .  D
C432        C584   1.544       .  S
C432        C441   1.447       .  S
C437        C438   1.203       .  T
C439        C440   1.203       .  T
C441        C442   1.209       .  T
C443        C444   1.208       .  T
C445        C446   1.205       .  T
C447        C448   1.204       .  T
C449        C450   1.208       .  T
C451        C452   1.208       .  T
C453        C454   1.207       .  T
C455        C456   1.206       .  T
C457        C458   1.206       .  T
C459        C460   1.205       .  T
C461        C462   1.209       .  T
C463        C464   1.209       .  T
C465        C466   1.205       .  T
C467        C468   1.205       .  T
C469        N470   1.355       .  A
C469        N474   1.357       .  A
C469        C621   1.433       .  S
N470        C471   1.355       .  A
C471        N472   1.358       .  A
C471        C623   1.435       .  S
N472        C473   1.361       .  A
C473        N474   1.360       .  A
C473        C527   1.471       .  S
C475        N476   1.358       .  A
C475        N480   1.358       .  A
C475        C619   1.440       .  S
N476        C477   1.360       .  A
C477        N478   1.361       .  A
C477        C542   1.471       .  S
N478        C479   1.358       .  A
C479        N480   1.359       .  A
C479        C617   1.441       .  S
C481        N482   1.357       .  A
C481        N486   1.356       .  A
C481        C615   1.435       .  S
N482        C483   1.360       .  A
C483        N484   1.360       .  A
C483        C530   1.469       .  S
N484        C485   1.358       .  A
C485        N486   1.355       .  A
C485        C613   1.436       .  S
C487        N488   1.357       .  A
C487        N492   1.358       .  A
C487        C609   1.438       .  S
N488        C489   1.360       .  A
C489        N490   1.359       .  A
C489        C543   1.469       .  S
N490        C491   1.357       .  A
C491        N492   1.358       .  A
C491        C611   1.436       .  S
C493        C499   1.529       .  S
C493        C497   1.536       .  S
C493        C612   1.468       .  S
C494        H501   1.087       .  S
C494        C495   1.363       .  D
C495        C496   1.539       .  S
C495        C616   1.441       .  S
C496        C498   1.541       .  S
C496        H502   1.111       .  S
C497        H503   1.086       .  S
C498        C620   1.446       .  S
C499        H504   1.088       .  S
C499        C500   1.362       .  D
C500        C624   1.441       .  S
C505        C506   1.529       .  S
C505        C511   1.531       .  S
C505        C509   1.532       .  S
C505        C622   1.466       .  S
C506        H513   1.087       .  S
C506        C507   1.362       .  D
C507        C618   1.446       .  S
C508        C512   1.542       .  S
C508        C510   1.540       .  S
C508        H514   1.111       .  S
C509        H515   1.087       .  S
C510        C614   1.441       .  S
C511        H516   1.087       .  S
C512        C610   1.444       .  S
O517       Ni525   1.919       .  S
O517        C527   1.281       .  A
O518       Ni525   1.919       .  S
O518        C528   1.281   1_556  A
O519       Ni525   1.922       .  S
O519        C529   1.282   1_556  A
O520       Ni525   1.922       .  S
O520        C530   1.282       .  A
O521       Ni526   1.914       .  S
O521        C530   1.280       .  A
O522       Ni526   1.914       .  S
O522        C529   1.280   1_556  A
O523       Ni526   1.921       .  S
O523        C528   1.282   1_556  A
O524       Ni526   1.921       .  S
O524        C527   1.282       .  A
Ni525      Ni526   2.390       .  S
C528        C559   1.472       .  S
C529        C549   1.469       .  S
O531        C541   1.280       .  A
O532        C542   1.281       .  A
O533        C543   1.282       .  A
O534        C544   1.282       .  A
O535       Ni540   1.916   1_455  S
O536        C543   1.280       .  A
O537       Ni540   1.922       .  S
O538        C541   1.282       .  A
C541        C565   1.467       .  S
C544        C553   1.471       .  S
C545        N546   1.357       .  A
C545        N550   1.356       .  A
C545        C606   1.439       .  S
N546        C547   1.357       .  A
C547        N548   1.358       .  A
C547        C607   1.440       .  S
N548        C549   1.361       .  A
C549        N550   1.361       .  A
C551        N552   1.358       .  A
C551        N556   1.354       .  A
C551        C602   1.434       .  S
N552        C553   1.361       .  A
C553        N554   1.360       .  A
N554        C555   1.358       .  A
C555        N556   1.354       .  A
C555        C603   1.433       .  S
C557        N558   1.359       .  A
C557        N562   1.360       .  A
C557        C598   1.442       .  S
N558        C559   1.360       .  A
C559        N560   1.358       .  A
N560        C561   1.356       .  A
C561        N562   1.360       .  A
C561        C599   1.439       .  S
C563        N564   1.357       .  A
C563        N568   1.354       .  A
C563        C596   1.432       .  S
N564        C565   1.360       .  A
C565        N566   1.359       .  A
N566        C567   1.356       .  A
C567        N568   1.354       .  A
C567        C594   1.430       .  S
C569        C570   1.533       .  S
C569        C601   1.467       .  S
C570        H577   1.087       .  S
C570        C571   1.365       .  D
C571        C600   1.445       .  S
C572        C576   1.541       .  S
C572        C574   1.537       .  S
C572        H578   1.111       .  S
C573        H579   1.087       .  S
C573        C574   1.363       .  D
C574        C595   1.438       .  S
C575        H580   1.087       .  S
C575        C576   1.363       .  D
C576        C608   1.445       .  S
C581        C587   1.530       .  S
C581        C593   1.462       .  S
C582        H589   1.087       .  S
C582        C583   1.363       .  D
C583        C584   1.544       .  S
C583        C605   1.445       .  S
C584        C586   1.540       .  S
C584        H590   1.111       .  S
C585        H591   1.087       .  S
C585        C586   1.362       .  D
C586        C604   1.439       .  S
C587        H592   1.087       .  S
C587        C588   1.364       .  D
C588        C597   1.447       .  S
C593        C594   1.203       .  T
C595        C596   1.203       .  T
C597        C598   1.209       .  T
C599        C600   1.208       .  T
C601        C602   1.205       .  T
C603        C604   1.204       .  T
C605        C606   1.208       .  T
C607        C608   1.208       .  T
C609        C610   1.207       .  T
C611        C612   1.206       .  T
C613        C614   1.206       .  T
C615        C616   1.205       .  T
C617        C618   1.209       .  T
C619        C620   1.209       .  T
C621        C622   1.205       .  T
C623        C624   1.205       .  T
