geometry optimzed in LAMMPS
_audit_creation_date              2020-11-30 
_audit_creation_method            'lammps2cif' 
_symmetry_space_group_name_H-M    'P1' 
_symmetry_Int_Tables_number       1 
_symmetry_cell_setting            triclinic 
loop_ 
_symmetry_equiv_pos_as_xyz 
  x,y,z 
_cell_length_a                    35.87133083 
_cell_length_b                    35.85521133446352 
_cell_length_c                    36.14042604312785 
_cell_angle_alpha                 89.98509647866987 
_cell_angle_beta                  89.88195801916959 
_cell_angle_gamma                 120.19050258137256 
loop_ 
_atom_site_label 
_atom_site_type_symbol 
_atom_site_fract_x 
_atom_site_fract_y 
_atom_site_fract_z 
_atom_site_charge 
O1          O  0.62845904  0.25120542  0.72039929    -0.84700
O2          O  0.71340742  0.30873576  0.70282864    -0.81800
C3          C  0.74793012  0.34422408  0.69866670     0.98700
O4          O  0.75596762  0.37595795  0.71929618    -0.81800
O5          O  0.69715970  0.40181302  0.70089641    -0.84400
C6          C  0.66156547  0.40075487  0.69808501     1.03300
O7          O  0.63102872  0.37821654  0.72027911    -0.77200
O8          O  0.60481876  0.29407798  0.70266372    -0.77400
C9          C  0.60517811  0.25929079  0.69924339     1.03200
O10         O  0.65000724  0.26870842  0.79782064    -0.84700
O11         O  0.73608291  0.32133825  0.78013054    -0.81800
C12         C  0.75075910  0.35433414  0.80080395     0.98800
O13         O  0.73892425  0.38170733  0.79614056    -0.81800
O14         O  0.68600151  0.41409783  0.77767039    -0.84400
C15         C  0.65509229  0.39591680  0.80050464     1.03200
O16         O  0.62873249  0.35614566  0.79755650    -0.77200
O17         O  0.59328405  0.27094278  0.77937341    -0.77400
C18         C  0.61049369  0.25647950  0.80124258     1.03200
Cr19       Cr  0.68132110  0.29103299  0.75020814     1.93700
Cr20       Cr  0.71605855  0.38905230  0.74851526     1.93200
Cr21       Cr  0.61875894  0.32570110  0.74993779     1.39100
O22         O  0.67214674  0.33521486  0.74937562    -1.22500
C23         C  0.62425283  0.60189377  0.96982816     0.03800
C24         C  0.66391516  0.64044825  0.96954163    -0.12400
C25         C  0.66939280  0.67642968  0.98927744     0.01300
C26         C  0.63461012  0.67345736  0.00955094    -0.10900
C27         C  0.59499359  0.63460936  0.01076736     0.03800
C28         C  0.58977141  0.59873292  0.99071595    -0.10300
H29         H  0.69071508  0.64229699  0.95407818     0.09300
H30         H  0.63859992  0.70114505  0.02501674     0.06900
H31         H  0.55930104  0.56870558  0.99145342     0.06700
C32         C  0.03387510  0.99807699  0.99661727     0.80800
N33         N  0.99633678  0.95964999  0.99518386    -0.77500
C34         C  0.95742535  0.95756748  0.99537731     0.83300
N35         N  0.95674141  0.99512892  0.99710136    -0.77400
C36         C  0.99369118  0.03406086  0.99845368     0.83400
N37         N  0.03195284  0.03490377  0.99823687    -0.79100
C38         C  0.96268170  0.36387342  0.99008044     0.03800
C39         C  0.96223722  0.32446145  0.98786337    -0.12400
C40         C  0.99309602  0.31831628  0.00653644     0.01300
C41         C  0.02485610  0.35249714  0.02743985    -0.10900
C42         C  0.02462228  0.39124875  0.03147448     0.03800
C43         C  0.99340034  0.39682534  0.01285274    -0.10300
H44         H  0.93793897  0.29860001  0.97126089     0.09300
H45         H  0.04971913  0.34873727  0.04131180     0.06900
H46         H  0.99348269  0.42694541  0.01562159     0.06700
C47         C  0.36179785  0.97055757  0.01918619     0.03800
C48         C  0.39864957  0.00222657  0.00067073    -0.12400
C49         C  0.39721826  0.03499133  0.98053245     0.01300
C50         C  0.35878418  0.03643184  0.97990068    -0.10900
C51         C  0.32137155  0.00456158  0.99771556     0.03800
C52         C  0.32315728  0.97136740  0.01686603    -0.10300
H53         H  0.42845244  0.00147899  0.00209272     0.09300
H54         H  0.35800979  0.06237015  0.96521419     0.06900
H55         H  0.29458446  0.94646142  0.03067378     0.06700
O56         O  0.27222641  0.64978440  0.30001741    -0.84700
O57         O  0.32405699  0.73588399  0.28163981    -0.81800
C58         C  0.35790639  0.75096748  0.30105861     0.98700
O59         O  0.38503280  0.73901598  0.29577507    -0.81800
O60         O  0.41648459  0.68580968  0.27621841    -0.84400
C61         C  0.39913212  0.65399528  0.29822526     1.03300
O62         O  0.35947692  0.62666175  0.29571060    -0.77200
O63         O  0.27296635  0.59257057  0.28015783    -0.77400
C64         C  0.25927978  0.61001175  0.30259225     1.03200
O65         O  0.25138112  0.62852974  0.22338498    -0.84700
O66         O  0.30882312  0.71281392  0.20480347    -0.81800
C67         C  0.34456413  0.74667488  0.19945925     0.98800
O68         O  0.37688373  0.75506247  0.21926736    -0.81800
O69         O  0.40102017  0.69650161  0.19987234    -0.84400
C70         C  0.39934263  0.66086716  0.19573926     1.03200
O71         O  0.37779310  0.63005032  0.21790704    -0.77200
O72         O  0.29286822  0.60406295  0.20333384    -0.77400
C73         C  0.25813383  0.60476148  0.20178537     1.03200
Cr74       Cr  0.29272216  0.68107137  0.25230698     1.93700
Cr75       Cr  0.39046606  0.71546885  0.24797301     1.93200
Cr76       Cr  0.32671465  0.61777186  0.24938329     1.39100
O77         O  0.33662471  0.67150079  0.24993259    -1.22500
C78         C  0.60638444  0.63442964  0.47575207     0.03800
C79         C  0.60260811  0.59921564  0.49619288    -0.12400
C80         C  0.63673105  0.60457208  0.51899913     0.01300
C81         C  0.67437232  0.64503277  0.52103156    -0.10900
C82         C  0.67796604  0.68064755  0.50167797     0.03800
C83         C  0.64376516  0.67503391  0.47910697    -0.10300
H84         H  0.57358215  0.56810745  0.49433577     0.09300
H85         H  0.70077350  0.64902068  0.53849318     0.06900
H86         H  0.64604464  0.70240048  0.46424115     0.06700
C87         C  0.04089061  0.99529413  0.50914997     0.80800
N88         N  0.04203282  0.03326574  0.50337455    -0.77500
C89         C  0.00509429  0.03516718  0.50403527     0.83300
N90         N  0.96703104  0.99802172  0.50997347    -0.77400
C91         C  0.96519696  0.95959422  0.51551870     0.83400
N92         N  0.00265833  0.95887963  0.51534361    -0.79100
C93         C  0.96470093  0.35675353  0.51140609     0.03800
C94         C  0.96598429  0.31830463  0.51033970    -0.12400
C95         C  0.99840354  0.31588171  0.49041704     0.01300
C96         C  0.02874631  0.35221546  0.47043407    -0.10900
C97         C  0.02659423  0.39020263  0.46998423     0.03800
C98         C  0.99483884  0.39260391  0.49085456    -0.10300
H99         H  0.94241695  0.29058390  0.52604852     0.09300
H100        H  0.05438107  0.35110873  0.45529113     0.06900
H101        H  0.99394646  0.42232979  0.49150569     0.06700
C102        C  0.36843713  0.96648431  0.48413874     0.03800
C103        C  0.32687582  0.96119597  0.48581935    -0.12400
C104        C  0.31817332  0.98674498  0.50957315     0.01300
C105        C  0.35076100  0.01686112  0.53256375    -0.10900
C106        C  0.39215392  0.02208660  0.53146688     0.03800
C107        C  0.40103470  0.99704346  0.50712568    -0.10300
H108        H  0.30169644  0.93818819  0.46779577     0.09300
H109        H  0.34425929  0.03718699  0.55052867     0.06900
H110        H  0.43343986  0.00197654  0.50553916     0.06700
C111        C  0.14697391  0.00518702  0.53883242    -0.04800
C112        C  0.15646554  0.98688691  0.50820898     0.09300
C113        C  0.12798653  0.97159182  0.47778328    -0.02200
C114        C  0.09053823  0.97509749  0.47780725    -0.00500
C115        C  0.08100963  0.99319397  0.50852340    -0.04100
C116        C  0.10904310  0.00780868  0.53918325     0.02900
C117        C  0.19738233  0.98530954  0.50745664     0.09800
C118        C  0.13736258  0.95234853  0.44644793     0.35700
C119        C  0.09827074  0.02459173  0.57144583     0.39100
C120        C  0.20133366  0.95435918  0.52867492    -0.04500
C121        C  0.24066057  0.95429901  0.52901006     0.02700
C122        C  0.27602899  0.98501325  0.50799792    -0.04100
C123        C  0.27180076  0.01535148  0.48622373    -0.00300
C124        C  0.23270605  0.01569536  0.48614911    -0.02900
C125        C  0.16506238  0.92296479  0.55046915     0.36400
C126        C  0.30789282  0.04640948  0.46402405     0.40000
C127        C  0.24507435  0.92316615  0.55138935     0.39200
C128        C  0.22903557  0.04794297  0.46477237     0.36100
C129        C  0.17659152  0.02177122  0.56978127     0.36800
C130        C  0.06211034  0.96072468  0.44598668     0.40000
N131        N  0.24872513  0.89839717  0.56924659    -0.38100
N132        N  0.13614871  0.89805264  0.56798027    -0.39600
N133        N  0.33670470  0.07112243  0.44631067    -0.37400
N134        N  0.22597667  0.07362257  0.44776722    -0.39800
N135        N  0.14494631  0.93707042  0.42145098    -0.39600
N136        N  0.03946512  0.94940864  0.42057960    -0.37200
N137        N  0.08945139  0.03770539  0.59724559    -0.38200
N138        N  0.20034523  0.03499595  0.59439478    -0.39900
C139        C  0.00374422  0.21656675  0.45947672    -0.04800
C140        C  0.00443266  0.19807615  0.49377958     0.09300
C141        C  0.00434084  0.21887415  0.52692254    -0.02200
C142        C  0.00383709  0.25797265  0.52578812    -0.00500
C143        C  0.00123103  0.27562877  0.49145988    -0.04100
C144        C  0.00124959  0.25461869  0.45827026     0.02900
C145        C  0.00523816  0.15659894  0.49500939     0.09800
C146        C  0.00449655  0.19980941  0.56229771     0.35700
C147        C  0.99772575  0.27146938  0.42276109     0.39100
C148        C  0.04318526  0.15668892  0.50514307    -0.04500
C149        C  0.04348199  0.11752299  0.50817446     0.02700
C150        C  0.00604641  0.07748663  0.49917954    -0.04100
C151        C  0.96889403  0.07829961  0.48643214    -0.00300
C152        C  0.96811793  0.11729568  0.48579322    -0.02900
C153        C  0.08218060  0.19747375  0.51239735     0.36400
C154        C  0.93169001  0.03964051  0.47226373     0.40000
C155        C  0.08251261  0.11926926  0.52135314     0.39200
C156        C  0.92876127  0.11699669  0.47587943     0.36100
C157        C  0.00586842  0.19642136  0.42534375     0.36800
C158        C  0.00743585  0.28070497  0.56002423     0.40000
N159        N  0.11389863  0.12113737  0.53178175    -0.38100
N160        N  0.11322138  0.23005516  0.51806206    -0.39600
N161        N  0.90196837  0.00905751  0.46069777    -0.37400
N162        N  0.89740614  0.11681897  0.46804629    -0.39800
N163        N  0.00462680  0.18458864  0.59050432    -0.39600
N164        N  0.01040623  0.29895469  0.58726890    -0.37200
N165        N  0.99506336  0.28495983  0.39441119    -0.38200
N166        N  0.00762869  0.18027909  0.39818470    -0.39900
C167        C  0.87707543  0.83973552  0.51216703    -0.04800
C168        C  0.83978317  0.84201141  0.51993944     0.09300
C169        C  0.84384244  0.88182694  0.52999688    -0.02200
C170        C  0.88489004  0.91954309  0.53111687    -0.00500
C171        C  0.92239832  0.91844098  0.51976940    -0.04100
C172        C  0.91795207  0.87755966  0.51114236     0.02900
C173        C  0.79620311  0.80259499  0.51532167     0.09800
C174        C  0.80548034  0.88412423  0.53849231     0.35700
C175        C  0.95461272  0.87347293  0.49988601     0.39100
C176        C  0.77051541  0.78071383  0.54636472    -0.04500
C177        C  0.73067719  0.74229460  0.54159635     0.02700
C178        C  0.71742666  0.72398332  0.50595150    -0.04100
C179        C  0.74275631  0.74659410  0.47481965    -0.00300
C180        C  0.78142590  0.78616138  0.47949063    -0.02900
C181        C  0.78550798  0.79719394  0.58328920     0.36400
C182        C  0.73011908  0.72882262  0.43793117     0.40000
C183        C  0.70276589  0.72214072  0.57332390     0.39200
C184        C  0.80658361  0.80984786  0.44735453     0.36100
C185        C  0.87308385  0.79810679  0.50440310     0.36800
C186        C  0.88790514  0.95897518  0.54492461     0.40000
N187        N  0.68022693  0.70607857  0.59846754    -0.38100
N188        N  0.79741353  0.81031587  0.61277328    -0.39600
N189        N  0.72064035  0.71535666  0.40822251    -0.37400
N190        N  0.82679108  0.82882563  0.42184318    -0.39800
N191        N  0.77487411  0.88588097  0.54535775    -0.39600
N192        N  0.88996687  0.99022127  0.55607546    -0.37200
N193        N  0.98350408  0.86962501  0.49093477    -0.38200
N194        N  0.86980300  0.76492292  0.49818788    -0.39900
C195        C  0.08339999  0.46362125  0.38791324    -0.04800
C196        C  0.12321149  0.49406044  0.40382070     0.09300
C197        C  0.12984080  0.49217888  0.44213995    -0.02200
C198        C  0.09760655  0.45904001  0.46407451    -0.00500
C199        C  0.05852354  0.42770404  0.44786611    -0.04100
C200        C  0.05116640  0.43053178  0.40988873     0.02900
C201        C  0.15938988  0.52569380  0.37962716     0.09800
C202        C  0.17039459  0.52369946  0.45873190     0.35700
C203        C  0.01076839  0.39868268  0.39327723     0.39100
C204        C  0.15867305  0.56147610  0.36420361    -0.04500
C205        C  0.19108416  0.58900216  0.33899203     0.02700
C206        C  0.22603770  0.58245928  0.33064602    -0.04100
C207        C  0.22726725  0.54725346  0.34728011    -0.00300
C208        C  0.19366001  0.51858614  0.37090300    -0.02900
C209        C  0.12408646  0.56952411  0.37389606     0.36400
C210        C  0.26306801  0.54014930  0.34034329     0.40000
C211        C  0.18650868  0.62200402  0.31976562     0.39200
C212        C  0.19371357  0.48091494  0.38560134     0.36100
C213        C  0.07619291  0.46556923  0.34865247     0.36800
C214        C  0.10513678  0.45634607  0.50312882     0.40000
N215        N  0.18265043  0.64806949  0.30418580    -0.38100
N216        N  0.09651547  0.57597064  0.38166409    -0.39600
N217        N  0.29137097  0.53405460  0.33498367    -0.37400
N218        N  0.19357897  0.45079955  0.39730260    -0.39800
N219        N  0.20287609  0.54872293  0.47187283    -0.39600
N220        N  0.11122660  0.45417105  0.53427353    -0.37200
N221        N  0.97853406  0.37324349  0.38004920    -0.38200
N222        N  0.07051478  0.46736502  0.31735128    -0.39900
C223        C  0.37551489  0.91742666  0.39291878    -0.04800
C224        C  0.38452408  0.88546506  0.40525795     0.09300
C225        C  0.39344877  0.88357268  0.44300971    -0.02200
C226        C  0.38976891  0.91108212  0.46882500    -0.00500
C227        C  0.37779285  0.94113102  0.45682785    -0.04100
C228        C  0.37245433  0.94537519  0.41857457     0.02900
C229        C  0.37930339  0.85054804  0.37942938     0.09800
C230        C  0.40504536  0.85222648  0.45529509     0.35700
C231        C  0.36338200  0.97830646  0.40562283     0.39100
C232        C  0.41149182  0.85782053  0.35323238    -0.04500
C233        C  0.40509766  0.82487119  0.32818044     0.02700
C234        C  0.36635486  0.78448245  0.32920624    -0.04100
C235        C  0.33467603  0.77709380  0.35604522    -0.00300
C236        C  0.34102763  0.81004237  0.38086668    -0.02900
C237        C  0.45078966  0.89947111  0.35170636     0.36400
C238        C  0.29588827  0.73519505  0.35897867     0.40000
C239        C  0.43770430  0.83318138  0.30045884     0.39200
C240        C  0.30776642  0.80253695  0.40769010     0.36100
C241        C  0.36798830  0.92058776  0.35392268     0.36800
C242        C  0.39619525  0.90689985  0.50787549     0.40000
N243        N  0.46370860  0.83977550  0.27834747    -0.38100
N244        N  0.48203765  0.93280177  0.35039304    -0.39600
N245        N  0.26488177  0.70191281  0.36202114    -0.37400
N246        N  0.28138445  0.79671880  0.42915412    -0.39800
N247        N  0.41431061  0.82716354  0.46490237    -0.39600
N248        N  0.40137054  0.90355474  0.53902589    -0.37200
N249        N  0.35609275  0.00455413  0.39536650    -0.38200
N250        N  0.36216407  0.92322001  0.32278968    -0.39900
C251        C  0.48363767  0.67789803  0.37275206    -0.04800
C252        C  0.47997816  0.63711336  0.37735210     0.09300
C253        C  0.44924399  0.60168572  0.35657779    -0.02200
C254        C  0.42267691  0.60707372  0.33090973    -0.00500
C255        C  0.42623158  0.64797960  0.32616621    -0.04100
C256        C  0.45688213  0.68336818  0.34738017     0.02900
C257        C  0.51030887  0.63222517  0.40266707     0.09800
C258        C  0.44565523  0.55981134  0.36116008     0.35700
C259        C  0.46089571  0.72552221  0.34352852     0.39100
C260        C  0.50303429  0.62821288  0.44124194    -0.04500
C261        C  0.53383574  0.62770041  0.46522628     0.02700
C262        C  0.57140735  0.62977541  0.45065070    -0.04100
C263        C  0.57749479  0.63154946  0.41190002    -0.00300
C264        C  0.54743142  0.63348833  0.38805364    -0.02900
C265        C  0.46409358  0.62526405  0.45617138     0.36400
C266        C  0.61469864  0.63125963  0.39649720     0.40000
C267        C  0.52779753  0.62695080  0.50494667     0.39200
C268        C  0.55518230  0.63796772  0.34844794     0.36100
C269        C  0.51566129  0.71449475  0.39375868     0.36800
C270        C  0.39356900  0.57097534  0.30784845     0.40000
N271        N  0.52306927  0.62663154  0.53664972    -0.38100
N272        N  0.43289820  0.62276006  0.46797500    -0.39600
N273        N  0.64404294  0.63055916  0.38395326    -0.37400
N274        N  0.56124784  0.64167850  0.31684475    -0.39800
N275        N  0.44292813  0.52645818  0.36479202    -0.39600
N276        N  0.37059082  0.54223021  0.28929340    -0.37200
N277        N  0.46455498  0.75935769  0.34067336    -0.38200
N278        N  0.54125661  0.74361754  0.41053389    -0.39900
C279        C  0.32378313  0.82561874  0.14564581    -0.04800
C280        C  0.35677012  0.84095902  0.11873848     0.09300
C281        C  0.38536400  0.82477141  0.11778988    -0.02200
C282        C  0.38103444  0.79335273  0.14372695    -0.00500
C283        C  0.34822765  0.77824878  0.17099299    -0.04100
C284        C  0.31954689  0.79447493  0.17173611     0.02900
C285        C  0.36112921  0.87431278  0.09144127     0.09800
C286        C  0.41925238  0.84056141  0.09007921     0.35700
C287        C  0.28660508  0.78035712  0.20022438     0.39100
C288        C  0.38763385  0.91854237  0.09954217    -0.04500
C289        C  0.38892394  0.95003934  0.07531895     0.02700
C290        C  0.36375506  0.93745011  0.04272693    -0.04100
C291        C  0.33825835  0.89311071  0.03411942    -0.00300
C292        C  0.33675199  0.86166551  0.05854454    -0.02900
C293        C  0.41240220  0.93151065  0.13353184     0.36400
C294        C  0.31356563  0.87983403  0.00010107     0.40000
C295        C  0.41473452  0.99538279  0.08478127     0.39200
C296        C  0.30915785  0.81615932  0.05049029     0.36100
C297        C  0.29447135  0.84239187  0.14663162     0.36800
C298        C  0.40955428  0.77570784  0.14146293     0.40000
N299        N  0.43530105  0.03158863  0.09221138    -0.38100
N300        N  0.43203540  0.94178756  0.16071929    -0.39600
N301        N  0.29387770  0.86923726  0.97294806    -0.37400
N302        N  0.28701987  0.77979800  0.04434597    -0.39800
N303        N  0.44634466  0.85322247  0.06801418    -0.39600
N304        N  0.43242711  0.76181562  0.13909911    -0.37200
N305        N  0.26042053  0.76911615  0.22302092    -0.38200
N306        N  0.27118363  0.85588850  0.14727273    -0.39900
C307        C  0.07754775  0.46452844  0.11459356    -0.04800
C308        C  0.12133131  0.48649115  0.10377122     0.09300
C309        C  0.13303859  0.47853869  0.06861655    -0.02200
C310        C  0.10125808  0.44839028  0.04455564    -0.00500
C311        C  0.05749788  0.42581426  0.05554286    -0.04100
C312        C  0.04571103  0.43415630  0.09059406     0.02900
C313        C  0.15558077  0.51705611  0.12975811     0.09800
C314        C  0.17805181  0.50092482  0.05758436     0.35700
C315        C  0.00103077  0.41028343  0.10249232     0.39100
C316        C  0.17265282  0.50113353  0.15653464    -0.04500
C317        C  0.20641416  0.52992430  0.17983491     0.02700
C318        C  0.22341839  0.57491455  0.17645609    -0.04100
C319        C  0.20596383  0.59082755  0.14996632    -0.00300
C320        C  0.17218112  0.56193851  0.12663542    -0.02900
C321        C  0.15545163  0.45501663  0.16000224     0.36400
C322        C  0.22352892  0.63695640  0.14599827     0.40000
C323        C  0.22271589  0.51313265  0.20815183     0.39200
C324        C  0.15456034  0.57827749  0.09917999     0.36100
C325        C  0.06546978  0.47276218  0.15068951     0.36800
C326        C  0.11360039  0.44038550  0.00848785     0.40000
N327        N  0.23571566  0.49988692  0.23084355    -0.38100
N328        N  0.14166537  0.41821672  0.16279811    -0.39600
N329        N  0.23752362  0.67374016  0.14268206    -0.37400
N330        N  0.14044741  0.59119489  0.07719995    -0.39800
N331        N  0.21403445  0.51889543  0.04900255    -0.39600
N332        N  0.12340410  0.43391178  0.97972155    -0.37200
N333        N  0.96537312  0.39110276  0.11195679    -0.38200
N334        N  0.05590570  0.47933994  0.17952573    -0.39900
C335        C  0.15444875  0.03779245  0.00952492    -0.04800
C336        C  0.15805278  0.00371270  0.99392786     0.09300
C337        C  0.12130349  0.96827158  0.97832140    -0.02200
C338        C  0.08142831  0.96725590  0.97768075    -0.00500
C339        C  0.07678511  0.00002555  0.99562105    -0.04100
C340        C  0.11389436  0.03509643  0.01207631     0.02900
C341        C  0.20047275  0.00481084  0.99476581     0.09800
C342        C  0.12450910  0.93259492  0.96291717     0.35700
C343        C  0.11081418  0.06795832  0.03306292     0.39100
C344        C  0.21762827  0.00107080  0.02878575    -0.04500
C345        C  0.25801309  0.00330374  0.02989116     0.02700
C346        C  0.28027233  0.00592792  0.99664962    -0.04100
C347        C  0.26275145  0.00933409  0.96250736    -0.00300
C348        C  0.22378443  0.01011185  0.96177364    -0.02900
C349        C  0.19348910  0.99468807  0.06277496     0.36400
C350        C  0.28415611  0.01120397  0.92786830     0.40000
C351        C  0.27733113  0.00469399  0.06549128     0.39200
C352        C  0.20779280  0.01680546  0.92701965     0.36100
C353        C  0.19286151  0.07603724  0.02270579     0.36800
C354        C  0.04603418  0.93313329  0.95705415     0.40000
N355        N  0.29278280  0.00605119  0.09390888    -0.38100
N356        N  0.17414019  0.98963509  0.08980371    -0.39600
N357        N  0.30135361  0.01298386  0.90023750    -0.37400
N358        N  0.19504357  0.02222662  0.89933368    -0.39800
N359        N  0.12705325  0.90416201  0.95060298    -0.39600
N360        N  0.01804272  0.90597871  0.94035300    -0.37200
N361        N  0.10866949  0.09421634  0.05000098    -0.38200
N362        N  0.22359477  0.10657247  0.03295748    -0.39900
C363        C  0.98700343  0.21551694  0.96865996    -0.04800
C364        C  0.98923635  0.19534587  0.00146138     0.09300
C365        C  0.99215586  0.21519545  0.03589215    -0.02200
C366        C  0.99210348  0.25448790  0.03761131    -0.00500
C367        C  0.99175995  0.27584640  0.00466606    -0.04100
C368        C  0.98981125  0.25622020  0.97009961     0.02900
C369        C  0.98978202  0.15374473  0.99979271     0.09800
C370        C  0.99549927  0.19519639  0.06968264     0.35700
C371        C  0.99229466  0.27842583  0.93580463     0.39100
C372        C  0.02651270  0.15340751  0.98635242    -0.04500
C373        C  0.02746862  0.11453462  0.98494489     0.02700
C374        C  0.99237848  0.07546655  0.99910717    -0.04100
C375        C  0.95596196  0.07652421  0.01359819    -0.00300
C376        C  0.95420941  0.11502189  0.01262743    -0.02900
C377        C  0.06372054  0.19347047  0.97411458     0.36400
C378        C  0.92069667  0.03883571  0.03115861     0.40000
C379        C  0.06460116  0.11541526  0.96792989     0.39200
C380        C  0.91556000  0.11488628  0.02484840     0.36100
C381        C  0.98143770  0.19408085  0.93336132     0.36800
C382        C  0.99139596  0.27223100  0.07353150     0.40000
N383        N  0.09437825  0.11648139  0.95434724    -0.38100
N384        N  0.09332906  0.22541149  0.96434089    -0.39600
N385        N  0.89247079  0.00904185  0.04537561    -0.37400
N386        N  0.88476520  0.11486568  0.03449272    -0.39800
N387        N  0.99809545  0.17914125  0.09658390    -0.39600
N388        N  0.99098545  0.28643931  0.10218248    -0.37200
N389        N  0.99430561  0.29612282  0.90843415    -0.38200
N390        N  0.97677495  0.17682718  0.90525664    -0.39900
C391        C  0.50986925  0.65724342  0.04948252    -0.04800
C392        C  0.50135365  0.63634617  0.08410502     0.09300
C393        C  0.52050766  0.61150830  0.09319479    -0.02200
C394        C  0.55008482  0.60962786  0.06860341    -0.00500
C395        C  0.55978537  0.63177345  0.03443810    -0.04100
C396        C  0.53866099  0.65456264  0.02451238     0.02900
C397        C  0.47460929  0.64304660  0.11208404     0.09800
C398        C  0.51060412  0.58893262  0.12835098     0.35700
C399        C  0.54695097  0.67559768  0.98871746     0.39100
C400        C  0.42973985  0.61450540  0.11405647    -0.04500
C401        C  0.40480331  0.62088425  0.14080836     0.02700
C402        C  0.42479930  0.65570530  0.16592203    -0.04100
C403        C  0.46967130  0.68485899  0.16328517    -0.00300
C404        C  0.49448062  0.67838149  0.13654022    -0.02900
C405        C  0.40935960  0.57853074  0.08855329     0.36400
C406        C  0.49062906  0.72092626  0.18870299     0.40000
C407        C  0.35838274  0.59252059  0.14144895     0.39200
C408        C  0.54068524  0.70773714  0.13439552     0.36100
C409        C  0.48993790  0.68257344  0.04015976     0.36800
C410        C  0.57216059  0.58674770  0.07927506     0.40000
N411        N  0.32135195  0.56984328  0.14138028    -0.38100
N412        N  0.39312275  0.54979441  0.06822595    -0.39600
N413        N  0.50729133  0.74977747  0.20888258    -0.37400
N414        N  0.57755437  0.73101067  0.13261679    -0.39800
N415        N  0.50250777  0.57084629  0.15637045    -0.39600
N416        N  0.58989623  0.56865683  0.08792524    -0.37200
N417        N  0.55348865  0.69222175  0.96008496    -0.38200
N418        N  0.47408174  0.70289058  0.03295594    -0.39900
C419        C  0.77518474  0.77124965  0.02345705    -0.04800
C420        C  0.79473991  0.79228121  0.98986859     0.09300
C421        C  0.77338219  0.77464182  0.95606175    -0.02200
C422        C  0.73168757  0.73799537  0.95597631    -0.00500
C423        C  0.71226160  0.71672713  0.98953715    -0.04100
C424        C  0.73461969  0.73305358  0.02321227     0.02900
C425        C  0.83679607  0.83419581  0.99019830     0.09800
C426        C  0.79455272  0.79407918  0.92128834     0.35700
C427        C  0.71637496  0.70997476  0.05758122     0.39100
C428        C  0.87528418  0.83551802  0.00054330    -0.04500
C429        C  0.91421342  0.87542997  0.00339957     0.02700
C430        C  0.91591791  0.91468362  0.99305759    -0.04100
C431        C  0.87722439  0.91235761  0.98026911    -0.00300
C432        C  0.83789652  0.87276882  0.98038697    -0.02900
C433        C  0.87477907  0.79546245  0.00802627     0.36400
C434        C  0.87722747  0.94995569  0.96536560     0.40000
C435        C  0.95174462  0.87523102  0.01806171     0.39200
C436        C  0.79816370  0.87167948  0.97031896     0.36100
C437        C  0.79675708  0.78896895  0.05836794     0.36800
C438        C  0.70819817  0.72310970  0.92142114     0.40000
N439        N  0.98135505  0.87450376  0.02985366    -0.38100
N440        N  0.87430731  0.76348875  0.01387063    -0.39600
N441        N  0.87676825  0.97960072  0.95322557    -0.37400
N442        N  0.76647310  0.87065444  0.96218747    -0.39800
N443        N  0.81153476  0.80948984  0.89356076    -0.39600
N444        N  0.68932435  0.71138189  0.89392297    -0.37200
N445        N  0.70170740  0.69138049  0.08488270    -0.38200
N446        N  0.81405776  0.80292601  0.08621934    -0.39900
C447        C  0.51238764  0.16496986  0.85059241    -0.04800
C448        C  0.53009664  0.16252287  0.88464098     0.09300
C449        C  0.57432414  0.19071101  0.89154923    -0.02200
C450        C  0.60067132  0.22161585  0.86468754    -0.00500
C451        C  0.58316789  0.22379475  0.83005656    -0.04100
C452        C  0.53872842  0.19458551  0.82320816     0.02900
C453        C  0.50133528  0.13012989  0.91299579     0.09800
C454        C  0.59260930  0.18792738  0.92648204     0.35700
C455        C  0.51965290  0.19341789  0.78757463     0.39100
C456        C  0.48572331  0.08573640  0.90720435    -0.04500
C457        C  0.45260842  0.05457966  0.92990005     0.02700
C458        C  0.43557297  0.06765429  0.95924498    -0.04100
C459        C  0.45341001  0.11218817  0.96655924    -0.00300
C460        C  0.48584675  0.14326298  0.94331675    -0.02900
C461        C  0.50281579  0.07217937  0.87694542     0.36400
C462        C  0.43799950  0.12608562  0.99781961     0.40000
C463        C  0.43447102  0.00910146  0.92162087     0.39200
C464        C  0.50224116  0.18881444  0.94979685     0.36100
C465        C  0.46655422  0.13695388  0.84384624     0.36800
C466        C  0.64540362  0.25188717  0.87348033     0.40000
N467        N  0.41998542  0.97283150  0.91499375    -0.38100
N468        N  0.51645673  0.06145651  0.85275299    -0.39600
N469        N  0.42551346  0.13703856  0.02270799    -0.37400
N470        N  0.51545323  0.22518179  0.95499468    -0.39800
N471        N  0.60708954  0.18569158  0.95441428    -0.39600
N472        N  0.68105212  0.27597598  0.88068314    -0.37200
N473        N  0.50374338  0.19176765  0.75935749    -0.38200
N474        N  0.43003708  0.11461286  0.83858858    -0.39900
C475        C  0.56208712  0.16901548  0.62721079    -0.04800
C476        C  0.51921957  0.15979337  0.62324296     0.09300
C477        C  0.50517352  0.18471443  0.64240640    -0.02200
C478        C  0.53350555  0.21809169  0.66627793    -0.00500
C479        C  0.57625780  0.22647109  0.67161277    -0.04100
C480        C  0.59051961  0.20214653  0.65128963     0.02900
C481        C  0.48844641  0.12353990  0.59900487     0.09800
C482        C  0.46114917  0.17548129  0.63776344     0.35700
C483        C  0.63485655  0.21195694  0.65401637     0.39100
C484        C  0.46157813  0.08215977  0.61427265    -0.04500
C485        C  0.43101946  0.04846497  0.59185898     0.02700
C486        C  0.42681668  0.05622370  0.55425214    -0.04100
C487        C  0.45378883  0.09752926  0.53894778    -0.00300
C488        C  0.48473434  0.13105368  0.56122956    -0.02900
C489        C  0.46465552  0.07471571  0.65330326     0.36400
C490        C  0.44863451  0.10577834  0.50053614     0.40000
C491        C  0.40345363  0.00593053  0.60750671     0.39200
C492        C  0.51206362  0.17362932  0.54561551     0.36100
C493        C  0.57685801  0.14430468  0.60635994     0.36800
C494        C  0.51781179  0.24276333  0.68598353     0.40000
N495        N  0.38144404  0.97193995  0.61988773    -0.38100
N496        N  0.46701286  0.06897697  0.68451068    -0.39600
N497        N  0.44422732  0.11218812  0.46992028    -0.37400
N498        N  0.53387663  0.20764733  0.53321893    -0.39800
N499        N  0.42599354  0.16791253  0.63397625    -0.39600
N500        N  0.50514208  0.26243409  0.70149699    -0.37200
N501        N  0.67020251  0.21958888  0.65581433    -0.38200
N502        N  0.58860997  0.12464588  0.58960468    -0.39900
C503        C  0.91831216  0.40677946  0.91545189    -0.04800
C504        C  0.87408996  0.37506091  0.91584226     0.09300
C505        C  0.85842371  0.34257982  0.94327240    -0.02200
C506        C  0.88688908  0.34092206  0.96926603    -0.00500
C507        C  0.93176646  0.37050360  0.96704105    -0.04100
C508        C  0.94719988  0.40403735  0.94036463     0.02900
C509        C  0.84450218  0.37336167  0.88560308     0.09800
C510        C  0.81311107  0.30969149  0.94374219     0.35700
C511        C  0.99309162  0.43434297  0.93700205     0.39100
C512        C  0.84699578  0.35818121  0.85018308    -0.04500
C513        C  0.81707133  0.35285118  0.82240712     0.02700
C514        C  0.78340728  0.36160175  0.82994983    -0.04100
C515        C  0.78147024  0.37757338  0.86538612    -0.00300
C516        C  0.81227599  0.38402035  0.89279769    -0.02900
C517        C  0.88024618  0.34746592  0.84245678     0.36400
C518        C  0.74658692  0.38540515  0.87449508     0.40000
C519        C  0.82202491  0.33947926  0.78573699     0.39200
C520        C  0.81074751  0.40140173  0.92863525     0.36100
C521        C  0.93423032  0.44163552  0.88867968     0.36800
C522        C  0.86988335  0.30848593  0.99824576     0.40000
N523        N  0.82654764  0.32901791  0.75657880    -0.38100
N524        N  0.90689819  0.33910678  0.83638404    -0.39600
N525        N  0.71859670  0.39132031  0.88198915    -0.38600
N526        N  0.80965650  0.41535438  0.95722626    -0.39800
N527        N  0.77695207  0.28349859  0.94388369    -0.39600
N528        N  0.85631469  0.28260726  0.02135851    -0.37200
N529        N  0.02972219  0.45843377  0.93435282    -0.38200
N530        N  0.94697973  0.46951525  0.86738001    -0.39900
C531        C  0.83371502  0.39030018  0.62224642    -0.04800
C532        C  0.84179097  0.35608034  0.61664071     0.09300
C533        C  0.81964124  0.31829946  0.63819489    -0.02200
C534        C  0.78909620  0.31438436  0.66489651    -0.00500
C535        C  0.78019549  0.34834721  0.67025608    -0.04100
C536        C  0.80303259  0.38651694  0.64883671     0.02900
C537        C  0.87389126  0.35962112  0.58817359     0.09800
C538        C  0.82898340  0.28364912  0.63321537     0.35700
C539        C  0.79441186  0.42169565  0.65335021     0.39100
C540        C  0.91823091  0.38071817  0.59682698    -0.04500
C541        C  0.94803045  0.38090411  0.57117540     0.02700
C542        C  0.93370370  0.36007381  0.53665534    -0.04100
C543        C  0.88950362  0.33993034  0.52759985    -0.00300
C544        C  0.85968881  0.33976143  0.55328027    -0.02900
C545        C  0.93298002  0.40118296  0.63260074     0.36400
C546        C  0.87472115  0.31905175  0.49198209     0.40000
C547        C  0.99329105  0.40103887  0.58088614     0.39200
C548        C  0.81420496  0.31851335  0.54417946     0.36100
C549        C  0.85712730  0.42947146  0.60054150     0.36800
C550        C  0.76849513  0.27604435  0.68796209     0.40000
N551        N  0.02938476  0.41695594  0.58863205    -0.38100
N552        N  0.94475741  0.41754096  0.66113911    -0.39600
N553        N  0.86294600  0.30239730  0.46354921    -0.37400
N554        N  0.77785733  0.30153103  0.53709683    -0.39800
N555        N  0.83659293  0.25614362  0.62915919    -0.39600
N556        N  0.75239941  0.24553346  0.70645874    -0.37200
N557        N  0.78769946  0.44987179  0.65690950    -0.38200
N558        N  0.87598378  0.46076289  0.58329979    -0.39900
C559        C  0.61705860  0.43622934  0.61795574    -0.04800
C560        C  0.64375842  0.48149089  0.61926946     0.09300
C561        C  0.67612531  0.50015114  0.64661197    -0.02200
C562        C  0.68193835  0.47373972  0.67226076    -0.00500
C563        C  0.65609740  0.42832075  0.67026518    -0.04100
C564        C  0.62352988  0.40971491  0.64301216     0.02900
C565        C  0.63800998  0.50973030  0.59184565     0.09800
C566        C  0.70308776  0.54669906  0.64859857     0.35700
C567        C  0.59724376  0.36323545  0.63999435     0.39100
C568        C  0.61473800  0.53039503  0.60172225    -0.04500
C569        C  0.61276144  0.56007975  0.57722328     0.02700
C570        C  0.63335765  0.56871375  0.54235638    -0.04100
C571        C  0.65495996  0.54655675  0.53179963    -0.00300
C572        C  0.65735713  0.51724404  0.55648219    -0.02900
C573        C  0.59341014  0.52153085  0.63741709     0.36400
C574        C  0.67544719  0.55464418  0.49575211     0.40000
C575        C  0.59113688  0.58321188  0.58852506     0.39200
C576        C  0.68061683  0.49550996  0.54590816     0.36100
C577        C  0.58235170  0.41706122  0.59118843     0.36800
C578        C  0.71311515  0.49339006  0.70187290     0.40000
N579        N  0.57409164  0.60186158  0.59759524    -0.38100
N580        N  0.57632743  0.51430536  0.66589050    -0.39600
N581        N  0.69172908  0.56112561  0.46695213    -0.37400
N582        N  0.69911740  0.47806949  0.53755432    -0.39800
N583        N  0.72446392  0.58386107  0.65015978    -0.39600
N584        N  0.73762961  0.50895579  0.72575497    -0.37200
N585        N  0.57617407  0.32620967  0.63685142    -0.38200
N586        N  0.55446259  0.40186152  0.57000053    -0.39900
C587        C  0.67734424  0.48812114  0.86671159    -0.04800
C588        C  0.63557613  0.47520941  0.87978423     0.09300
C589        C  0.60061369  0.43508766  0.86918819    -0.02200
C590        C  0.60679556  0.40876387  0.84384653    -0.00500
C591        C  0.64866192  0.42203000  0.82953348    -0.04100
C592        C  0.68412525  0.46142327  0.84228767     0.02900
C593        C  0.62821459  0.50482317  0.90372036     0.09800
C594        C  0.55802725  0.42122774  0.88417777     0.35700
C595        C  0.72794737  0.47448485  0.83119953     0.39100
C596        C  0.61713425  0.53369529  0.88741776    -0.04500
C597        C  0.61255202  0.56342173  0.90962550     0.02700
C598        C  0.62013305  0.56509117  0.94803901    -0.04100
C599        C  0.62997221  0.53539433  0.96449024    -0.00300
C600        C  0.63369246  0.50505392  0.94236854    -0.02900
C601        C  0.61226113  0.53393143  0.84759399     0.36400
C602        C  0.63795398  0.53728256  0.00395127     0.40000
C603        C  0.60104896  0.59305082  0.89292288     0.39200
C604        C  0.64452722  0.47496677  0.95908381     0.36100
C605        C  0.71332241  0.52940620  0.87810538     0.36800
C606        C  0.56937388  0.36888134  0.83184249     0.40000
N607        N  0.59165726  0.61656401  0.87968330    -0.38100
N608        N  0.60872432  0.53422915  0.81578976    -0.39600
N609        N  0.64446321  0.53892381  0.03542270    -0.37400
N610        N  0.65323537  0.45095617  0.97233995    -0.39800
N611        N  0.52415122  0.41018129  0.89630175    -0.39600
N612        N  0.53942068  0.33709885  0.82239315    -0.37200
N613        N  0.76296646  0.48494972  0.82258874    -0.38200
N614        N  0.74189107  0.56239953  0.88717176    -0.39900
loop_ 
_geom_bond_atom_site_label_1 
_geom_bond_atom_site_label_2 
_geom_bond_distance 
_geom_bond_site_symmetry_2 
_ccdc_geom_bond_type 
O1          Cr19   2.020       .  S
O1            C9   1.270       .  A
O2          Cr19   1.979       .  S
O2            C3   1.261       .  A
C3            O4   1.267       .  A
C3          C535   1.496       .  S
O4          Cr20   2.014       .  S
O5          Cr20   1.987       .  S
O5            C6   1.262       .  A
C6            O7   1.266       .  A
C6          C563   1.490       .  S
O7          Cr21   2.013       .  S
O8          Cr21   1.972       .  S
O8            C9   1.260       .  A
C9          C479   1.495       .  S
O10         Cr19   1.988       .  S
O10          C18   1.261       .  A
O11         Cr19   2.018       .  S
O11          C12   1.269       .  A
C12          O13   1.261       .  A
C12         C514   1.499       .  S
O13         Cr20   1.982       .  S
O14         Cr20   2.012       .  S
O14          C15   1.267       .  A
C15          O16   1.258       .  A
C15         C591   1.499       .  S
O16         Cr21   1.973       .  S
O17         Cr21   2.003       .  S
O17          C18   1.264       .  A
C18         C451   1.503       .  S
Cr19         O22   1.773       .  S
Cr20         O22   1.775       .  S
Cr21         O22   1.768       .  S
C23         C598   1.479       .  S
C23          C24   1.399       .  A
C23          C28   1.403       .  A
C24          C25   1.399       .  A
C24          H29   1.084       .  S
C25         C423   1.489       .  S
C25          C26   1.403   1_556  A
C26          C27   1.404       .  A
C26          H30   1.085       .  S
C27         C395   1.484       .  S
C27          C28   1.405   1_554  A
C28          H31   1.082       .  S
C32         C339   1.506   1_565  S
C32          N33   1.360   1_455  A
C32          N37   1.358   1_565  A
N33          C34   1.360       .  A
C34         C430   1.512       .  S
C34          N35   1.361       .  A
N35          C36   1.359   1_565  A
C36         C374   1.509       .  S
C36          N37   1.358   1_655  A
C38         C507   1.499       .  S
C38          C39   1.407       .  A
C38          C43   1.408   1_556  A
C39          C40   1.406   1_556  A
C39          H44   1.081       .  S
C40         C367   1.501       .  S
C40          C41   1.404   1_655  A
C41          C42   1.401       .  A
C41          H45   1.090       .  S
C42         C311   1.489       .  S
C42          C43   1.406   1_455  A
C43          H46   1.083       .  S
C47         C290   1.490       .  S
C47          C48   1.404   1_565  A
C47          C52   1.404       .  A
C48          C49   1.405   1_554  A
C48          H53   1.084       .  S
C49         C458   1.494       .  S
C49          C50   1.406       .  A
C50          C51   1.405       .  A
C50          H54   1.083       .  S
C51         C346   1.500       .  S
C51          C52   1.406   1_546  A
C52          H55   1.084       .  S
O56         Cr74   1.984       .  S
O56          C64   1.262       .  A
O57         Cr74   2.008       .  S
O57          C58   1.266       .  A
C58          O59   1.259       .  A
C58         C234   1.485       .  S
O59         Cr75   1.975       .  S
O60         Cr75   2.011       .  S
O60          C61   1.267       .  A
C61          O62   1.261       .  A
C61         C255   1.492       .  S
O62         Cr76   1.979       .  S
O63         Cr76   2.002       .  S
O63          C64   1.264       .  A
C64         C206   1.495       .  S
O65         Cr74   2.010       .  S
O65          C73   1.266       .  A
O66         Cr74   1.977       .  S
O66          C67   1.260       .  A
C67          O68   1.265       .  A
C67         C283   1.485       .  S
O68         Cr75   2.006       .  S
O69         Cr75   1.971       .  S
O69          C70   1.257       .  A
C70          O71   1.264       .  A
C70         C402   1.482       .  S
O71         Cr76   2.006       .  S
O72         Cr76   1.973       .  S
O72          C73   1.260       .  A
C73         C318   1.483       .  S
Cr74         O77   1.774       .  S
Cr75         O77   1.777       .  S
Cr76         O77   1.775       .  S
C78         C262   1.490       .  S
C78          C79   1.409       .  A
C78          C83   1.403       .  A
C79          C80   1.408       .  A
C79          H84   1.079       .  S
C80         C570   1.491       .  S
C80          C81   1.401       .  A
C81          C82   1.404       .  A
C81          H85   1.087       .  S
C82         C178   1.494       .  S
C82          C83   1.402       .  A
C83          H86   1.085       .  S
C87         C115   1.479       .  S
C87          N88   1.357   1_565  A
C87          N92   1.354       .  A
N88          C89   1.361       .  A
C89         C150   1.511       .  S
C89          N90   1.362   1_445  A
N90          C91   1.361       .  A
C91         C171   1.509       .  S
C91          N92   1.357   1_655  A
C93         C542   1.487       .  S
C93          C94   1.403       .  A
C93          C98   1.404       .  A
C94          C95   1.406       .  A
C94          H99   1.085       .  S
C95         C143   1.497   1_655  S
C95          C96   1.405   1_655  A
C96          C97   1.403       .  A
C96         H100   1.087       .  S
C97         C199   1.485       .  S
C97          C98   1.403   1_455  A
C98         H101   1.083       .  S
C102        C227   1.490       .  S
C102        C103   1.406       .  A
C102        C107   1.405       .  A
C103        C104   1.400       .  A
C103        H108   1.083       .  S
C104        C122   1.483       .  S
C104        C105   1.399   1_565  A
C105        C106   1.400       .  A
C105        H109   1.085       .  S
C106        C486   1.482       .  S
C106        C107   1.403   1_545  A
C107        H110   1.086   1_565  S
C111        C112   1.412   1_545  A
C111        C116   1.410       .  A
C111        C129   1.450       .  S
C112        C117   1.497       .  S
C112        C113   1.412       .  A
C113        C114   1.411       .  A
C113        C118   1.450       .  S
C114        C115   1.411       .  A
C114        C130   1.451       .  S
C115        C116   1.410   1_565  A
C116        C119   1.450       .  S
C117        C120   1.413       .  A
C117        C124   1.412   1_565  A
C118        N135   1.157       .  T
C119        N137   1.157       .  T
C120        C121   1.412       .  A
C120        C125   1.450       .  S
C121        C122   1.410       .  A
C121        C127   1.450       .  S
C122        C123   1.411   1_565  A
C123        C124   1.409       .  A
C123        C126   1.451       .  S
C124        C128   1.451       .  S
C125        N132   1.157       .  T
C126        N133   1.157       .  T
C127        N131   1.157       .  T
C128        N134   1.157       .  T
C129        N138   1.157       .  T
C130        N136   1.157       .  T
C139        C140   1.412       .  A
C139        C144   1.412       .  A
C139        C157   1.451       .  S
C140        C145   1.503       .  S
C140        C141   1.412       .  A
C141        C142   1.412       .  A
C141        C146   1.451       .  S
C142        C143   1.417       .  A
C142        C158   1.452       .  S
C143        C144   1.417       .  A
C144        C147   1.451   1_455  S
C145        C148   1.409       .  A
C145        C152   1.409   1_455  A
C146        N163   1.157       .  T
C147        N165   1.157       .  T
C148        C149   1.414       .  A
C148        C153   1.452       .  S
C149        C150   1.426       .  A
C149        C155   1.451       .  S
C150        C151   1.425   1_455  A
C151        C152   1.413       .  A
C151        C154   1.452       .  S
C152        C156   1.452       .  S
C153        N160   1.157       .  T
C154        N161   1.158       .  T
C155        N159   1.158       .  T
C156        N162   1.157       .  T
C157        N166   1.157       .  T
C158        N164   1.157       .  T
C167        C168   1.408       .  A
C167        C172   1.411       .  A
C167        C185   1.453       .  S
C168        C173   1.499       .  S
C168        C169   1.408       .  A
C169        C170   1.413       .  A
C169        C174   1.452       .  S
C170        C171   1.425       .  A
C170        C186   1.451       .  S
C171        C172   1.427       .  A
C172        C175   1.452       .  S
C173        C176   1.411       .  A
C173        C180   1.412       .  A
C174        N191   1.157       .  T
C175        N193   1.158       .  T
C176        C177   1.411       .  A
C176        C181   1.450       .  S
C177        C178   1.416       .  A
C177        C183   1.451       .  S
C178        C179   1.415       .  A
C179        C180   1.410       .  A
C179        C182   1.450       .  S
C180        C184   1.452       .  S
C181        N188   1.157       .  T
C182        N189   1.157       .  T
C183        N187   1.157       .  T
C184        N190   1.157       .  T
C185        N194   1.157       .  T
C186        N192   1.158       .  T
C195        C196   1.413       .  A
C195        C200   1.411       .  A
C195        C213   1.451       .  S
C196        C201   1.500       .  S
C196        C197   1.413       .  A
C197        C198   1.411       .  A
C197        C202   1.450       .  S
C198        C199   1.411       .  A
C198        C214   1.450       .  S
C199        C200   1.411       .  A
C200        C203   1.451       .  S
C201        C204   1.411       .  A
C201        C208   1.410       .  A
C202        N219   1.157       .  T
C203        N221   1.157   1_455  T
C204        C205   1.413       .  A
C204        C209   1.450       .  S
C205        C206   1.419       .  A
C205        C211   1.451       .  S
C206        C207   1.419       .  A
C207        C208   1.410       .  A
C207        C210   1.451       .  S
C208        C212   1.452       .  S
C209        N216   1.157       .  T
C210        N217   1.157       .  T
C211        N215   1.157       .  T
C212        N218   1.157       .  T
C213        N222   1.157       .  T
C214        N220   1.157       .  T
C223        C224   1.410       .  A
C223        C228   1.410       .  A
C223        C241   1.451       .  S
C224        C229   1.496       .  S
C224        C225   1.411       .  A
C225        C226   1.411       .  A
C225        C230   1.451       .  S
C226        C227   1.414       .  A
C226        C242   1.450       .  S
C227        C228   1.415       .  A
C228        C231   1.451       .  S
C229        C232   1.411       .  A
C229        C236   1.411       .  A
C230        N247   1.157       .  T
C231        N249   1.157   1_565  T
C232        C233   1.413       .  A
C232        C237   1.450       .  S
C233        C234   1.416       .  A
C233        C239   1.451       .  S
C234        C235   1.412       .  A
C235        C236   1.408       .  A
C235        C238   1.450       .  S
C236        C240   1.452       .  S
C237        N244   1.157       .  T
C238        N245   1.157       .  T
C239        N243   1.157       .  T
C240        N246   1.157       .  T
C241        N250   1.157       .  T
C242        N248   1.157       .  T
C251        C252   1.411       .  A
C251        C256   1.412       .  A
C251        C269   1.451       .  S
C252        C257   1.499       .  S
C252        C253   1.410       .  A
C253        C254   1.412       .  A
C253        C258   1.450       .  S
C254        C255   1.417       .  A
C254        C270   1.451       .  S
C255        C256   1.417       .  A
C256        C259   1.451       .  S
C257        C260   1.412       .  A
C257        C264   1.411       .  A
C258        N275   1.157       .  T
C259        N277   1.157       .  T
C260        C261   1.413       .  A
C260        C265   1.450       .  S
C261        C262   1.413       .  A
C261        C267   1.450       .  S
C262        C263   1.413       .  A
C263        C264   1.411       .  A
C263        C266   1.450       .  S
C264        C268   1.451       .  S
C265        N272   1.157       .  T
C266        N273   1.157       .  T
C267        N271   1.157       .  T
C268        N274   1.157       .  T
C269        N278   1.157       .  T
C270        N276   1.157       .  T
C279        C280   1.410       .  A
C279        C284   1.410       .  A
C279        C297   1.451       .  S
C280        C285   1.496       .  S
C280        C281   1.410       .  A
C281        C282   1.412       .  A
C281        C286   1.450       .  S
C282        C283   1.415       .  A
C282        C298   1.451       .  S
C283        C284   1.414       .  A
C284        C287   1.451       .  S
C285        C288   1.411       .  A
C285        C292   1.411       .  A
C286        N303   1.157       .  T
C287        N305   1.157       .  T
C288        C289   1.411       .  A
C288        C293   1.450       .  S
C289        C290   1.415       .  A
C289        C295   1.451       .  S
C290        C291   1.414       .  A
C291        C292   1.411       .  A
C291        C294   1.450       .  S
C292        C296   1.450       .  S
C293        N300   1.157       .  T
C294        N301   1.157   1_554  T
C295        N299   1.157   1_565  T
C296        N302   1.157       .  T
C297        N306   1.157       .  T
C298        N304   1.157       .  T
C307        C308   1.412       .  A
C307        C312   1.413       .  A
C307        C325   1.450       .  S
C308        C313   1.498       .  S
C308        C309   1.411       .  A
C309        C310   1.410       .  A
C309        C314   1.451       .  S
C310        C311   1.413       .  A
C310        C326   1.450       .  S
C311        C312   1.414       .  A
C312        C315   1.450       .  S
C313        C316   1.411       .  A
C313        C320   1.412       .  A
C314        N331   1.157       .  T
C315        N333   1.157   1_455  T
C316        C317   1.410       .  A
C316        C321   1.451       .  S
C317        C318   1.414       .  A
C317        C323   1.452       .  S
C318        C319   1.413       .  A
C319        C320   1.412       .  A
C319        C322   1.451       .  S
C320        C324   1.450       .  S
C321        N328   1.157       .  T
C322        N329   1.157       .  T
C323        N327   1.157       .  T
C324        N330   1.157       .  T
C325        N334   1.157       .  T
C326        N332   1.157   1_554  T
C335        C336   1.409   1_554  A
C335        C340   1.411       .  A
C335        C353   1.452       .  S
C336        C341   1.503       .  S
C336        C337   1.410   1_545  A
C337        C338   1.413       .  A
C337        C342   1.452       .  S
C338        C339   1.423   1_565  A
C338        C354   1.451       .  S
C339        C340   1.424   1_556  A
C340        C343   1.452       .  S
C341        C344   1.412   1_556  A
C341        C348   1.412       .  A
C342        N359   1.157       .  T
C343        N361   1.158       .  T
C344        C345   1.411       .  A
C344        C349   1.452   1_545  S
C345        C346   1.418   1_554  A
C345        C351   1.452       .  S
C346        C347   1.419       .  A
C347        C348   1.412       .  A
C347        C350   1.451       .  S
C348        C352   1.451       .  S
C349        N356   1.157       .  T
C350        N357   1.157       .  T
C351        N355   1.157       .  T
C352        N358   1.157       .  T
C353        N362   1.157       .  T
C354        N360   1.158       .  T
C363        C364   1.412   1_556  A
C363        C368   1.412       .  A
C363        C381   1.451       .  S
C364        C369   1.503   1_554  S
C364        C365   1.411       .  A
C365        C366   1.411       .  A
C365        C370   1.451       .  S
C366        C367   1.419       .  A
C366        C382   1.452       .  S
C367        C368   1.418   1_554  A
C368        C371   1.451       .  S
C369        C372   1.409   1_655  A
C369        C376   1.409   1_556  A
C370        N387   1.157       .  T
C371        N389   1.157       .  T
C372        C373   1.412       .  A
C372        C377   1.452       .  S
C373        C374   1.426   1_455  A
C373        C379   1.452       .  S
C374        C375   1.424   1_556  A
C375        C376   1.413       .  A
C375        C378   1.451       .  S
C376        C380   1.452       .  S
C377        N384   1.157       .  T
C378        N385   1.158       .  T
C379        N383   1.158       .  T
C380        N386   1.157       .  T
C381        N390   1.157       .  T
C382        N388   1.157       .  T
C391        C392   1.410       .  A
C391        C396   1.409       .  A
C391        C409   1.450       .  S
C392        C397   1.493       .  S
C392        C393   1.410       .  A
C393        C394   1.410       .  A
C393        C398   1.451       .  S
C394        C395   1.413       .  A
C394        C410   1.450       .  S
C395        C396   1.412       .  A
C396        C399   1.450   1_554  S
C397        C400   1.409       .  A
C397        C404   1.410       .  A
C398        N415   1.157       .  T
C399        N417   1.157       .  T
C400        C401   1.411       .  A
C400        C405   1.450       .  S
C401        C402   1.414       .  A
C401        C407   1.451       .  S
C402        C403   1.414       .  A
C403        C404   1.409       .  A
C403        C406   1.452       .  S
C404        C408   1.451       .  S
C405        N412   1.157       .  T
C406        N413   1.157       .  T
C407        N411   1.157       .  T
C408        N414   1.157       .  T
C409        N418   1.157       .  T
C410        N416   1.157       .  T
C419        C420   1.414   1_554  A
C419        C424   1.410       .  A
C419        C437   1.451       .  S
C420        C425   1.501       .  S
C420        C421   1.413       .  A
C421        C422   1.410       .  A
C421        C426   1.451       .  S
C422        C423   1.414       .  A
C422        C438   1.451       .  S
C423        C424   1.414   1_556  A
C424        C427   1.452       .  S
C425        C428   1.409   1_556  A
C425        C432   1.409       .  A
C426        N443   1.157       .  T
C427        N445   1.157       .  T
C428        C429   1.414       .  A
C428        C433   1.452       .  S
C429        C430   1.427   1_554  A
C429        C435   1.451       .  S
C430        C431   1.426       .  A
C431        C432   1.411       .  A
C431        C434   1.452       .  S
C432        C436   1.453       .  S
C433        N440   1.157       .  T
C434        N441   1.158       .  T
C435        N439   1.158       .  T
C436        N442   1.157       .  T
C437        N446   1.157       .  T
C438        N444   1.157       .  T
C447        C448   1.409       .  A
C447        C452   1.409       .  A
C447        C465   1.453       .  S
C448        C453   1.501       .  S
C448        C449   1.411       .  A
C449        C450   1.416       .  A
C449        C454   1.450       .  S
C450        C451   1.421       .  A
C450        C466   1.451       .  S
C451        C452   1.422       .  A
C452        C455   1.450       .  S
C453        C456   1.413       .  A
C453        C460   1.411       .  A
C454        N471   1.157       .  T
C455        N473   1.157       .  T
C456        C457   1.412       .  A
C456        C461   1.451       .  S
C457        C458   1.416       .  A
C457        C463   1.451       .  S
C458        C459   1.415       .  A
C459        C460   1.412       .  A
C459        C462   1.451       .  S
C460        C464   1.450       .  S
C461        N468   1.157       .  T
C462        N469   1.157   1_556  T
C463        N467   1.157   1_545  T
C464        N470   1.157       .  T
C465        N474   1.157       .  T
C466        N472   1.157       .  T
C475        C476   1.409       .  A
C475        C480   1.412       .  A
C475        C493   1.451       .  S
C476        C481   1.496       .  S
C476        C477   1.408       .  A
C477        C478   1.411       .  A
C477        C482   1.452       .  S
C478        C479   1.420       .  A
C478        C494   1.451       .  S
C479        C480   1.418       .  A
C480        C483   1.449       .  S
C481        C484   1.412       .  A
C481        C488   1.411       .  A
C482        N499   1.157       .  T
C483        N501   1.157       .  T
C484        C485   1.411       .  A
C484        C489   1.450       .  S
C485        C486   1.411       .  A
C485        C491   1.451       .  S
C486        C487   1.411       .  A
C487        C488   1.410       .  A
C487        C490   1.451       .  S
C488        C492   1.450       .  S
C489        N496   1.157       .  T
C490        N497   1.157       .  T
C491        N495   1.157   1_545  T
C492        N498   1.157       .  T
C493        N502   1.157       .  T
C494        N500   1.158       .  T
C503        C504   1.413       .  A
C503        C508   1.414       .  A
C503        C521   1.450       .  S
C504        C509   1.505       .  S
C504        C505   1.412       .  A
C505        C506   1.412       .  A
C505        C510   1.451       .  S
C506        C507   1.416       .  A
C506        C522   1.451       .  S
C507        C508   1.418       .  A
C508        C511   1.451       .  S
C509        C512   1.411       .  A
C509        C516   1.412       .  A
C510        N527   1.157       .  T
C511        N529   1.157   1_655  T
C512        C513   1.412       .  A
C512        C517   1.452       .  S
C513        C514   1.418       .  A
C513        C519   1.450       .  S
C514        C515   1.419       .  A
C515        C516   1.416       .  A
C515        C518   1.451       .  S
C516        C520   1.450       .  S
C517        N524   1.157       .  T
C518        N525   1.157       .  T
C519        N523   1.157       .  T
C520        N526   1.157       .  T
C521        N530   1.157       .  T
C522        N528   1.157   1_556  T
C531        C532   1.410       .  A
C531        C536   1.414       .  A
C531        C549   1.450       .  S
C532        C537   1.500       .  S
C532        C533   1.410       .  A
C533        C534   1.412       .  A
C533        C538   1.451       .  S
C534        C535   1.419       .  A
C534        C550   1.451       .  S
C535        C536   1.419       .  A
C536        C539   1.451       .  S
C537        C540   1.411       .  A
C537        C544   1.412       .  A
C538        N555   1.157       .  T
C539        N557   1.157       .  T
C540        C541   1.411       .  A
C540        C545   1.450       .  S
C541        C542   1.413       .  A
C541        C547   1.450       .  S
C542        C543   1.412       .  A
C543        C544   1.412       .  A
C543        C546   1.450       .  S
C544        C548   1.450       .  S
C545        N552   1.157       .  T
C546        N553   1.157       .  T
C547        N551   1.157   1_655  T
C548        N554   1.157       .  T
C549        N558   1.157       .  T
C550        N556   1.157       .  T
C559        C560   1.411       .  A
C559        C564   1.414       .  A
C559        C577   1.450       .  S
C560        C565   1.503       .  S
C560        C561   1.413       .  A
C561        C562   1.414       .  A
C561        C566   1.450       .  S
C562        C563   1.414       .  A
C562        C578   1.451       .  S
C563        C564   1.415       .  A
C564        C567   1.449       .  S
C565        C568   1.412       .  A
C565        C572   1.413       .  A
C566        N583   1.157       .  T
C567        N585   1.157       .  T
C568        C569   1.413       .  A
C568        C573   1.450       .  S
C569        C570   1.413       .  A
C569        C575   1.450       .  S
C570        C571   1.413       .  A
C571        C572   1.414       .  A
C571        C574   1.450       .  S
C572        C576   1.450       .  S
C573        N580   1.157       .  T
C574        N581   1.157       .  T
C575        N579   1.157       .  T
C576        N582   1.157       .  T
C577        N586   1.157       .  T
C578        N584   1.157       .  T
C587        C588   1.408       .  A
C587        C592   1.410       .  A
C587        C605   1.452       .  S
C588        C593   1.492       .  S
C588        C589   1.406       .  A
C589        C590   1.410       .  A
C589        C594   1.452       .  S
C590        C591   1.424       .  A
C590        C606   1.452       .  S
C591        C592   1.422       .  A
C592        C595   1.452       .  S
C593        C596   1.411       .  A
C593        C600   1.410       .  A
C594        N611   1.157       .  T
C595        N613   1.158       .  T
C596        C597   1.408       .  A
C596        C601   1.451       .  S
C597        C598   1.411       .  A
C597        C603   1.451       .  S
C598        C599   1.411       .  A
C599        C600   1.409       .  A
C599        C602   1.450   1_556  S
C600        C604   1.450       .  S
C601        N608   1.157       .  T
C602        N609   1.157       .  T
C603        N607   1.157       .  T
C604        N610   1.157       .  T
C605        N614   1.157       .  T
C606        N612   1.158       .  T
