geometry optimzed in LAMMPS
_audit_creation_date              2020-11-30 
_audit_creation_method            'lammps2cif' 
_symmetry_space_group_name_H-M    'P1' 
_symmetry_Int_Tables_number       1 
_symmetry_cell_setting            triclinic 
loop_ 
_symmetry_equiv_pos_as_xyz 
  x,y,z 
_cell_length_a                    34.12639027 
_cell_length_b                    34.1460520659009 
_cell_length_c                    50.947087740441454 
_cell_angle_alpha                 90.03049961456789 
_cell_angle_beta                  89.98852687356435 
_cell_angle_gamma                 90.31116881924379 
loop_ 
_atom_site_label 
_atom_site_type_symbol 
_atom_site_fract_x 
_atom_site_fract_y 
_atom_site_fract_z 
_atom_site_charge 
N1          N  0.72872901  0.36076598  0.79226139    -0.27500
N2          N  0.72302982  0.39500475  0.80363281    -0.35400
C3          C  0.75420652  0.41826550  0.79892562     0.00800
C4          C  0.78086962  0.39751250  0.78383647     0.06900
C5          C  0.76356654  0.36114005  0.78008878    -0.06200
H6          H  0.75673051  0.44826979  0.80554588     0.07500
H7          H  0.77441159  0.33720544  0.76828900     0.08700
Cu8        Cu  0.67180941  0.40825987  0.82345237     0.44200
Cu9        Cu  0.68718940  0.31671628  0.79076858     0.42000
Cu10       Cu  0.59197084  0.33606756  0.81766150     0.43900
N11         N  0.61820100  0.41261047  0.84228837    -0.34900
N12         N  0.58946471  0.38656062  0.84041781    -0.29100
C13         C  0.55978734  0.39769618  0.85608539    -0.05200
C14         C  0.57038349  0.43236414  0.86827521     0.07000
C15         C  0.60751230  0.44097695  0.85908236     0.00800
H16         H  0.53284434  0.38133581  0.85878552     0.08400
H17         H  0.62587038  0.46552932  0.86468005     0.07500
N18         N  0.60415589  0.28729671  0.79470426    -0.36300
N19         N  0.63963313  0.27993182  0.78565913    -0.28500
C20         C  0.63873669  0.24667777  0.77162711    -0.03800
C21         C  0.60075963  0.23223808  0.77166447     0.04900
C22         C  0.57953680  0.25887455  0.78645756     0.02900
H23         H  0.66379812  0.23459054  0.76152797     0.08100
H24         H  0.54860139  0.25765745  0.79101016     0.06900
N25         N  0.23470788  0.12720495  0.54816523    -0.27500
N26         N  0.22921593  0.09174801  0.53842851    -0.35400
C27         C  0.26024206  0.06941474  0.54440940     0.00800
C28         C  0.28666138  0.09173515  0.55884565     0.06900
C29         C  0.26938936  0.12835288  0.56068226    -0.06200
H30         H  0.26238751  0.03870903  0.53946919     0.07500
H31         H  0.27995876  0.15338348  0.57164843     0.08700
Cu32       Cu  0.17786060  0.07376831  0.52032447     0.44200
Cu33       Cu  0.19223943  0.17040180  0.54752883     0.42000
Cu34       Cu  0.09496003  0.13835615  0.52881277     0.43900
N35         N  0.12314468  0.06327110  0.50416229    -0.34900
N36         N  0.09292895  0.08691051  0.50725417    -0.29100
C37         C  0.06290239  0.07376054  0.49256819    -0.05200
C38         C  0.07481016  0.04022710  0.47969553     0.07000
C39         C  0.11306794  0.03426991  0.48756589     0.00800
H40         H  0.03505878  0.08844139  0.49058307     0.08400
H41         H  0.13273129  0.01169084  0.48077520     0.07500
N42         N  0.10662925  0.19161592  0.54677148    -0.36300
N43         N  0.14248490  0.20435538  0.55189368    -0.28500
C44         C  0.14035163  0.23999873  0.56299362    -0.03800
C45         C  0.10129688  0.24986983  0.56530776     0.04900
C46         C  0.08066316  0.21848618  0.55498919     0.02900
H47         H  0.16525866  0.25648301  0.57024835     0.08100
H48         H  0.04915892  0.21521102  0.55382449     0.06900
N49         N  0.29284512  0.62482214  0.79211747    -0.27500
N50         N  0.29799441  0.59221882  0.80551511    -0.35400
C51         C  0.26662737  0.56878543  0.80211958     0.00800
C52         C  0.24035892  0.58757802  0.78563445     0.06900
C53         C  0.25814471  0.62316034  0.77979815    -0.06200
H54         H  0.26396000  0.53977127  0.81042737     0.07500
H55         H  0.24774723  0.64561345  0.76662090     0.08700
Cu56       Cu  0.34890319  0.58076740  0.82596493     0.44200
Cu57       Cu  0.33488926  0.66818045  0.78907937     0.42000
Cu58       Cu  0.42737162  0.65444809  0.82237593     0.43900
N59         N  0.40196378  0.57655626  0.84526189    -0.34900
N60         N  0.43025853  0.60318590  0.84437538    -0.29100
C61         C  0.45986789  0.59147563  0.85991360    -0.05200
C62         C  0.44960531  0.55584525  0.87095704     0.07000
C63         C  0.41280814  0.54728209  0.86123773     0.00800
H64         H  0.48664007  0.60789885  0.86315031     0.08400
H65         H  0.39485463  0.52196653  0.86579157     0.07500
N66         N  0.41587612  0.70150334  0.79765728    -0.36300
N67         N  0.38189096  0.70606963  0.78567874    -0.28500
C68         C  0.38366936  0.73782969  0.77024773    -0.03800
C69         C  0.42067958  0.75439351  0.77243107     0.04900
C70         C  0.44028888  0.73053850  0.79013660     0.02900
H71         H  0.35964587  0.74766263  0.75815278     0.08100
H72         H  0.47037256  0.73330739  0.79655372     0.06900
N73         N  0.80368823  0.84909173  0.56190640    -0.27500
N74         N  0.80875238  0.88315485  0.55012287    -0.35400
C75         C  0.77794946  0.90624551  0.55555629     0.00800
C76         C  0.75231001  0.88564515  0.57168282     0.06900
C77         C  0.76973087  0.84945447  0.57516321    -0.06200
H78         H  0.77509660  0.93613517  0.54882857     0.07500
H79         H  0.75897685  0.82514205  0.58671979     0.08700
Cu80       Cu  0.85815026  0.89579688  0.52794563     0.44200
Cu81       Cu  0.84399540  0.80433748  0.56086941     0.42000
Cu82       Cu  0.93246957  0.81794622  0.52413196     0.43900
N83         N  0.90871835  0.89853215  0.50543858    -0.34900
N84         N  0.93524043  0.87046962  0.50395861    -0.29100
C85         C  0.96340070  0.88136692  0.48698680    -0.05200
C86         C  0.95408819  0.91791512  0.47733667     0.07000
C87         C  0.91933110  0.92798459  0.48940706     0.00800
H88         H  0.98847130  0.86371960  0.48181660     0.08400
H89         H  0.90268360  0.95449662  0.48652157     0.07500
N90         N  0.92163525  0.76881573  0.54678456    -0.36300
N91         N  0.88880474  0.76407305  0.56012020    -0.28500
C92         C  0.89051480  0.73047461  0.57365631    -0.03800
C93         C  0.92628040  0.71289981  0.56868535     0.04900
C94         C  0.94527180  0.73819421  0.55147963     0.02900
H95         H  0.86765930  0.72044159  0.58675673     0.08100
H96         H  0.97426627  0.73503709  0.54321107     0.06900
C97         C  0.01644692  0.48207521  0.67633755    -0.02700
C98         C  0.51450365  0.99144795  0.66816805    -0.02700
O99         O  0.56256902  0.48579920  0.89755957    -0.73200
O100        O  0.50455894  0.54361110  0.95391754    -0.74100
O101        O  0.56255663  0.48384969  0.95299624    -0.62800
O102        O  0.50477140  0.54549418  0.89846844    -0.71200
O103        O  0.45770790  0.50030862  0.89834672    -0.70700
O104        O  0.51657654  0.43759673  0.95188638    -0.62000
O105        O  0.45858327  0.49732634  0.95389956    -0.74500
O106        O  0.51552341  0.44062653  0.89642600    -0.73300
Cu107      Cu  0.53524924  0.51626535  0.92578167     1.04600
Cu108      Cu  0.48542841  0.46738566  0.92512452     1.04300
C109        C  0.54832944  0.45403446  0.88823813     0.93000
C110        C  0.47225263  0.52972176  0.96262102     0.92200
C111        C  0.54914272  0.45076789  0.96065009     0.84300
C112        C  0.47184680  0.53275398  0.89005790     0.90600
O113        O  0.00791292  0.92974217  0.39356149    -0.73200
O114        O  0.06715398  0.98700814  0.44999194    -0.74100
O115        O  0.00835177  0.92772487  0.44900323    -0.62800
O116        O  0.06685310  0.98892509  0.39443307    -0.71200
O117        O  0.02135000  0.03515179  0.39605197    -0.70700
O118        O  0.96187349  0.97303095  0.44957130    -0.62000
O119        O  0.02034551  0.03191473  0.45140402    -0.74500
O120        O  0.96240754  0.97600521  0.39412282    -0.73300
Cu121      Cu  0.03920614  0.95672649  0.42168877     1.04600
Cu122      Cu  0.98989001  0.00560692  0.42277091     1.04300
C123        C  0.97558342  0.94370077  0.38519666     0.93000
C124        C  0.05300853  0.01852547  0.45954608     0.92200
C125        C  0.97582125  0.94064476  0.45775609     0.84300
C126        C  0.05361547  0.02202211  0.38701163     0.90600
N127        N  0.72843684  0.36063871  0.05850676    -0.27500
N128        N  0.72188030  0.39541912  0.04819137    -0.35400
C129        C  0.75140273  0.41974813  0.05503680     0.00800
C130        C  0.77780738  0.39883645  0.07023393     0.06900
C131        C  0.76209564  0.36154345  0.07198267    -0.06200
H132        H  0.75332387  0.45028164  0.04950737     0.07500
H133        H  0.77343882  0.33707405  0.08304501     0.08700
Cu134      Cu  0.67198311  0.40606131  0.02612336     0.44200
Cu135      Cu  0.69025564  0.31417553  0.05584839     0.42000
Cu136      Cu  0.59979065  0.32386457  0.02146922     0.43900
N137        N  0.61990624  0.40730420  0.00507734    -0.34900
N138        N  0.59409536  0.37827478  0.00335879    -0.29100
C139        C  0.56441013  0.38960113  0.98774806    -0.05200
C140        C  0.57199970  0.42736333  0.97927101     0.07000
C141        C  0.60734901  0.43760939  0.99058090     0.00800
H142        H  0.53955255  0.37138386  0.98255282     0.08400
H143        H  0.62317981  0.46490734  0.98813941     0.07500
N144        N  0.61408604  0.27420925  0.04309943    -0.36300
N145        N  0.64777985  0.27139495  0.05564830    -0.28500
C146        C  0.64831784  0.23813920  0.06957368    -0.03800
C147        C  0.61314467  0.21864674  0.06577333     0.04900
C148        C  0.59215418  0.24231699  0.04866167     0.02900
H149        H  0.67237296  0.22948813  0.08206931     0.08100
H150        H  0.56250100  0.23770199  0.04178507     0.06900
N151        N  0.23789351  0.12124524  0.29707948    -0.27500
N152        N  0.22725463  0.08495454  0.30271354    -0.35400
C153        C  0.25558774  0.06040378  0.29483605     0.00800
C154        C  0.28561249  0.08245546  0.28391366     0.06900
C155        C  0.27339813  0.12089308  0.28574222    -0.06200
H156        H  0.25422561  0.02887107  0.29674711     0.07500
H157        H  0.28832305  0.14660661  0.27826331     0.08700
Cu158      Cu  0.17474403  0.07098079  0.32081659     0.44200
Cu159      Cu  0.20207324  0.16911725  0.30214517     0.42000
Cu160      Cu  0.10853069  0.15273006  0.33246496     0.43900
N161        N  0.12342995  0.06690638  0.34231435    -0.34900
N162        N  0.09954238  0.09661348  0.34659362    -0.29100
C163        C  0.07028198  0.08471399  0.36237937    -0.05200
C164        C  0.07622546  0.04578429  0.36843425     0.07000
C165        C  0.11014146  0.03537040  0.35543571     0.00800
H166        H  0.04725984  0.10344059  0.36968535     0.08400
H167        H  0.12475968  0.00736120  0.35609664     0.07500
N168        N  0.12389819  0.20482812  0.31442905    -0.41500
N169        N  0.15838528  0.21060529  0.30330917    -0.28500
C170        C  0.15807767  0.24492534  0.29051424    -0.03800
C171        C  0.12150135  0.26174607  0.29363318     0.04900
C172        C  0.10068264  0.23552162  0.30912672     0.02900
H173        H  0.18219419  0.25567434  0.27873724     0.08100
H174        H  0.07009397  0.23713818  0.31454579     0.06900
N175        N  0.29618375  0.61495163  0.06595045    -0.27500
N176        N  0.30391875  0.58033771  0.05569370    -0.35400
C177        C  0.27622547  0.55462114  0.06351195     0.00800
C178        C  0.24989522  0.57405581  0.07965596     0.06900
C179        C  0.26358186  0.61232922  0.08056728    -0.06200
H180        H  0.27612506  0.52384594  0.05849113     0.07500
H181        H  0.25134013  0.63658233  0.09140322     0.08700
Cu182      Cu  0.35316908  0.57046540  0.03277529     0.44200
Cu183      Cu  0.33181680  0.66360744  0.06168622     0.42000
Cu184      Cu  0.42077671  0.65436989  0.02487086     0.43900
N185        N  0.40368285  0.56988947  0.01005714    -0.34900
N186        N  0.42801034  0.59994230  0.00724735    -0.29100
C187        C  0.45677554  0.58979122  0.99055776    -0.05200
C188        C  0.45011103  0.55170968  0.98240657     0.07000
C189        C  0.41626030  0.53999325  0.99512217     0.00800
H190        H  0.48013142  0.60914466  0.98421510     0.08400
H191        H  0.40133168  0.51210034  0.99322190     0.07500
N192        N  0.40647336  0.70452068  0.04582947    -0.36300
N193        N  0.37357148  0.70746238  0.05931078    -0.28500
C194        C  0.37375216  0.74130593  0.07269609    -0.03800
C195        C  0.40855659  0.76089690  0.06751730     0.04900
C196        C  0.42850031  0.73673688  0.05019253     0.02900
H197        H  0.35065931  0.75019398  0.08591620     0.08100
H198        H  0.45773465  0.74112562  0.04250082     0.06900
N199        N  0.86820371  0.76091382  0.29690405    -0.27500
N200        N  0.90377725  0.76760158  0.30612498    -0.35400
C201        C  0.92729576  0.73806152  0.29898511     0.00800
C202        C  0.90554240  0.71148784  0.28435273     0.06900
C203        C  0.86811135  0.72696907  0.28358222    -0.06200
H204        H  0.95826407  0.73698184  0.30338138     0.07500
H205        H  0.84309722  0.71572242  0.27288508     0.08700
Cu206      Cu  0.92005192  0.81855161  0.32518410     0.44200
Cu207      Cu  0.82284117  0.80052887  0.29950332     0.42000
Cu208      Cu  0.84894624  0.89690795  0.32284739     0.43900
N209        N  0.92896809  0.87292745  0.34201962    -0.34900
N210        N  0.90309161  0.90157861  0.34115668    -0.29100
C211        C  0.91655341  0.93188102  0.35547531    -0.05200
C212        C  0.95257097  0.92172516  0.36579188     0.07000
C213        C  0.95962002  0.88423216  0.35681598     0.00800
H214        H  0.90050824  0.95857963  0.35905779     0.08400
H215        H  0.98426126  0.86581455  0.36167704     0.07500
N216        N  0.79541670  0.88346778  0.30563356    -0.36300
N217        N  0.78533002  0.84775815  0.29813630    -0.28500
C218        C  0.74965900  0.84881807  0.28699282    -0.03800
C219        C  0.73676627  0.88715781  0.28719852     0.04900
C220        C  0.76655269  0.90832592  0.29919239     0.02900
H221        H  0.73535347  0.82393555  0.27787896     0.08100
H222        H  0.76770296  0.93964243  0.30235584     0.06900
C223        C  0.01117908  0.48021811  0.18148832    -0.02700
C224        C  0.51440327  0.98886871  0.17415354    -0.02700
C225        C  0.63527778  0.89339578  0.25746203    -0.11000
C226        C  0.63651276  0.93039591  0.24529062     0.06100
C227        C  0.67046399  0.95356936  0.24821337    -0.09800
C228        C  0.70243976  0.93999617  0.26258500    -0.11500
C229        C  0.70157910  0.90263687  0.27398454    -0.01200
C230        C  0.66763559  0.87952642  0.27145509    -0.10400
C231        C  0.60352285  0.94431307  0.22862874     0.06100
H232        H  0.67294282  0.98178884  0.23868363     0.08000
H233        H  0.72844404  0.95819706  0.26388408     0.11500
H234        H  0.66613985  0.85071582  0.28028851     0.11800
H235        H  0.60940196  0.87503263  0.25609954     0.08100
C236        C  0.58195076  0.91802947  0.21299104    -0.11100
C237        C  0.55312052  0.93153695  0.19578834    -0.10300
C238        C  0.54583532  0.97202425  0.19296671    -0.01300
C239        C  0.56581115  0.99784022  0.21007289    -0.11400
C240        C  0.59428617  0.98429899  0.22744104    -0.09800
H241        H  0.58782178  0.88692911  0.21356621     0.08100
H242        H  0.53654294  0.90979322  0.18506759     0.11800
H243        H  0.55969235  0.02892415  0.20960858     0.11500
H244        H  0.60914447  0.00531159  0.23991804     0.08100
C245        C  0.97409658  0.64027811  0.25106521    -0.11000
C246        C  0.94776111  0.61305795  0.24017593     0.06100
C247        C  0.90744271  0.61761214  0.24467402    -0.09800
C248        C  0.89372946  0.64921472  0.25940183    -0.11500
C249        C  0.92007332  0.67682572  0.26995770    -0.01200
C250        C  0.96043363  0.67177553  0.26580922    -0.10400
C251        C  0.96259863  0.58004550  0.22427070     0.06100
H252        H  0.88646356  0.59715346  0.23640218     0.08000
H253        H  0.86247899  0.65200212  0.26239682     0.11500
H254        H  0.98161278  0.69246060  0.27349498     0.11800
H255        H  0.00538229  0.63711489  0.24827090     0.08100
C256        C  0.99309322  0.58604493  0.20622918    -0.11100
C257        C  0.00869701  0.55472318  0.19219180    -0.10300
C258        C  0.99482876  0.51616501  0.19628530    -0.01300
C259        C  0.96231111  0.51100564  0.21314363    -0.11400
C260        C  0.94680681  0.54233855  0.22720539    -0.09800
H261        H  0.00469712  0.61517456  0.20277654     0.08100
H262        H  0.03111866  0.56135929  0.17789745     0.11800
H263        H  0.94962941  0.48217176  0.21598251     0.11500
H264        H  0.92305268  0.53685492  0.24083414     0.08100
C265        C  0.44186437  0.92307130  0.13524870    -0.11000
C266        C  0.46740676  0.89881939  0.12116168     0.06100
C267        C  0.50783395  0.90641581  0.12244536    -0.09800
C268        C  0.52239283  0.93602093  0.13879896    -0.11500
C269        C  0.49714205  0.95769893  0.15521765    -0.01200
C270        C  0.45637972  0.95222790  0.15180260    -0.10400
C271        C  0.45176950  0.86451432  0.10649610     0.06100
H272        H  0.52835185  0.88861496  0.11155348     0.08000
H273        H  0.55375489  0.94091172  0.13957700     0.11500
H274        H  0.43520402  0.97047033  0.16165900     0.11800
H275        H  0.41042595  0.91928219  0.13363549     0.08100
C276        C  0.42120871  0.84209457  0.11738663    -0.11100
C277        C  0.40693174  0.80898927  0.10448303    -0.10300
C278        C  0.42300264  0.79714354  0.08039357    -0.01300
C279        C  0.45348738  0.81955857  0.06933236    -0.11400
C280        C  0.46769920  0.85300086  0.08224038    -0.09800
H281        H  0.40888992  0.84955793  0.13631891     0.08100
H282        H  0.38395585  0.79213375  0.11386365     0.11800
H283        H  0.46627419  0.81134052  0.05069462     0.11500
H284        H  0.49101900  0.86988827  0.07321926     0.08100
C285        C  0.11556188  0.51597806  0.16504807    -0.11000
C286        C  0.11782861  0.51099658  0.13774727     0.06100
C287        C  0.08640009  0.49295163  0.12466724    -0.09800
C288        C  0.05250986  0.48216391  0.13833945    -0.11500
C289        C  0.04861555  0.49012861  0.16546962    -0.01200
C290        C  0.08175028  0.50523988  0.17871488    -0.10400
C291        C  0.15208720  0.52629770  0.12291578     0.06100
H292        H  0.08754689  0.48807008  0.10368061     0.08000
H293        H  0.02969425  0.46752464  0.12734762     0.11500
H294        H  0.08087359  0.50994385  0.19973215     0.11800
H295        H  0.13987301  0.52859206  0.17584761     0.08100
C296        C  0.16795916  0.56307729  0.12933598    -0.11100
C297        C  0.19948280  0.57844718  0.11523228    -0.10300
C298        C  0.21608891  0.55743767  0.09430769    -0.01300
C299        C  0.20028887  0.52054320  0.08784082    -0.11400
C300        C  0.16850411  0.50517510  0.10195572    -0.09800
H301        H  0.15557194  0.58036482  0.14508275     0.08100
H302        H  0.21091813  0.60675085  0.12100393     0.11800
H303        H  0.21222481  0.50363241  0.07177952     0.11500
H304        H  0.15699789  0.47664550  0.09662936     0.08100
C305        C  0.05270390  0.38256849  0.20629160    -0.11000
C306        C  0.05546067  0.38832214  0.23347114     0.06100
C307        C  0.04274849  0.42375171  0.24426284    -0.09800
C308        C  0.02810326  0.45327447  0.22807793    -0.11500
C309        C  0.02447884  0.44760869  0.20062443    -0.01200
C310        C  0.03781119  0.41182909  0.19012704    -0.10400
C311        C  0.07342592  0.35795490  0.25017360     0.06100
H312        H  0.04558023  0.42918332  0.26513143     0.08000
H313        H  0.02122836  0.48085175  0.23731055     0.11500
H314        H  0.03681989  0.40667214  0.16916080     0.11800
H315        H  0.06238504  0.35541256  0.19749102     0.08100
C316        C  0.05522635  0.34534602  0.27342689    -0.11100
C317        C  0.07127287  0.31460677  0.28799413    -0.10300
C318        C  0.10601628  0.29639607  0.27969323    -0.01300
C319        C  0.12489630  0.31028557  0.25699609    -0.11400
C320        C  0.10869592  0.34060106  0.24237233    -0.09800
H321        H  0.02801854  0.35843521  0.27984960     0.08100
H322        H  0.05625203  0.30484651  0.30554555     0.11800
H323        H  0.15156229  0.29699078  0.24990592     0.11500
H324        H  0.12357830  0.35028287  0.22473011     0.08100
C325        C  0.35405100  0.01948570  0.24407500    -0.11000
C326        C  0.38792407  0.04308786  0.24284569     0.06100
C327        C  0.38826377  0.07914355  0.25618053    -0.09800
C328        C  0.35516481  0.09168385  0.26987945    -0.11500
C329        C  0.32130588  0.06819882  0.27080546    -0.01200
C330        C  0.32121538  0.03177283  0.25809544    -0.10400
C331        C  0.42213493  0.03045003  0.22702285     0.06100
H332        H  0.41409316  0.09769357  0.25603828     0.08000
H333        H  0.35606871  0.11973559  0.27978610     0.11500
H334        H  0.29528928  0.01334893  0.25820714     0.11800
H335        H  0.35248356  0.99192697  0.23360740     0.08100
C336        C  0.43257991  0.99081796  0.22598716    -0.11100
C337        C  0.46257398  0.97836282  0.20947772    -0.10300
C338        C  0.48273211  0.00496799  0.19303444    -0.01300
C339        C  0.47425701  0.04520625  0.19587455    -0.11400
C340        C  0.44392455  0.05762560  0.21225623    -0.09800
H341        H  0.41738131  0.96926037  0.23784859     0.08100
H342        H  0.46938376  0.94743927  0.20887568     0.11800
H343        H  0.49076990  0.06750145  0.18562521     0.11500
H344        H  0.43702855  0.08851936  0.21287377     0.08100
C345        C  0.60536846  0.13761167  0.11618252    -0.11000
C346        C  0.57415770  0.11485931  0.10646671     0.06100
C347        C  0.55621416  0.12619390  0.08278917    -0.09800
C348        C  0.56886403  0.15980112  0.06942722    -0.11500
C349        C  0.59995778  0.18251377  0.07931981    -0.01200
C350        C  0.61819867  0.17082757  0.10274414    -0.10400
C351        C  0.55963071  0.08059223  0.12175273     0.06100
H352        H  0.53246348  0.10905759  0.07451543     0.08000
H353        H  0.55446094  0.16783846  0.05130234     0.11500
H354        H  0.64179683  0.18789849  0.11123470     0.11800
H355        H  0.61929414  0.13043886  0.13463972     0.08100
C356        C  0.58575107  0.05729408  0.13615896    -0.11100
C357        C  0.57192681  0.02768370  0.15269409    -0.10300
C358        C  0.53133317  0.02071422  0.15564578    -0.01300
C359        C  0.50565768  0.04185320  0.13923396    -0.11400
C360        C  0.51943990  0.07185796  0.12301711    -0.09800
H361        H  0.61708544  0.06194194  0.13468275     0.08100
H362        H  0.59345419  0.01019571  0.16279632     0.11800
H363        H  0.47442749  0.03611918  0.13983480     0.11500
H364        H  0.49836879  0.08896547  0.11212962     0.08100
C365        C  0.93152917  0.48358818  0.12801255    -0.11000
C366        C  0.91196160  0.44771722  0.13117444     0.06100
C367        C  0.92395445  0.42243031  0.15133231    -0.09800
C368        C  0.95555585  0.43214488  0.16747683    -0.11500
C369        C  0.97672718  0.46730411  0.16365793    -0.01200
C370        C  0.96304724  0.49342495  0.14421583    -0.10400
C371        C  0.87898855  0.43644750  0.11371643     0.06100
H372        H  0.90836991  0.39526178  0.15497221     0.08000
H373        H  0.96232162  0.41226119  0.18328914     0.11500
H374        H  0.97742036  0.52144898  0.14132383     0.11800
H375        H  0.92287183  0.50385076  0.11276631     0.08100
C376        C  0.85078774  0.46395720  0.10580092    -0.11100
C377        C  0.81846850  0.45222159  0.09073253    -0.10300
C378        C  0.81374225  0.41277622  0.08352799    -0.01300
C379        C  0.84275698  0.38574409  0.09055148    -0.11400
C380        C  0.87502029  0.39744759  0.10538138    -0.09800
H381        H  0.85295774  0.49421333  0.11201784     0.08100
H382        H  0.79647550  0.47365364  0.08564606     0.11800
H383        H  0.84042302  0.35531447  0.08477606     0.11500
H384        H  0.89679317  0.37580362  0.11050703     0.08100
C385        C  0.66614744  0.89374960  0.61821584    -0.11000
C386        C  0.64781395  0.92797459  0.60938761     0.06100
C387        C  0.66320205  0.94759828  0.58742826    -0.09800
C388        C  0.69695240  0.93373981  0.57495575    -0.11500
C389        C  0.71569657  0.89978692  0.58407942    -0.01200
C390        C  0.69959587  0.87975258  0.60567533    -0.10400
C391        C  0.61358762  0.94373630  0.62372305     0.06100
H392        H  0.64968569  0.97418988  0.58032834     0.08000
H393        H  0.70835451  0.94970716  0.55825843     0.11500
H394        H  0.71320594  0.85365247  0.61338803     0.11800
H395        H  0.65463534  0.87784112  0.63492605     0.08100
C396        C  0.58024335  0.95658521  0.61022412    -0.11100
C397        C  0.54801663  0.97139355  0.62393770    -0.10300
C398        C  0.54891543  0.97513660  0.65158637    -0.01300
C399        C  0.58227666  0.96088594  0.66487118    -0.11400
C400        C  0.61408836  0.94564975  0.65119117    -0.09800
H401        H  0.57877484  0.95436850  0.58904040     0.08100
H402        H  0.52251360  0.97907935  0.61261148     0.11800
H403        H  0.58386910  0.96219446  0.68608412     0.11500
H404        H  0.63942296  0.93590940  0.66212435     0.08100
C405        C  0.01983247  0.57789626  0.63538041    -0.11000
C406        C  0.98497091  0.57479183  0.62095352     0.06100
C407        C  0.96312973  0.53993602  0.62239941    -0.09800
C408        C  0.97442144  0.50997814  0.63934074    -0.11500
C409        C  0.00699341  0.51457868  0.65615150    -0.01200
C410        C  0.03104438  0.54799097  0.65243676    -0.10400
C411        C  0.97001296  0.60869326  0.60590184     0.06100
H412        H  0.93682672  0.53613966  0.61076906     0.08000
H413        H  0.95645592  0.48378486  0.64032554     0.11500
H414        H  0.05846485  0.55163516  0.66276358     0.11800
H415        H  0.03777769  0.60409662  0.63424042     0.08100
C416        C  0.93019879  0.61847500  0.60747454    -0.11100
C417        C  0.91602542  0.65178260  0.59495807    -0.10300
C418        C  0.94132560  0.67631944  0.58059374    -0.01300
C419        C  0.98108118  0.66608388  0.57850848    -0.11400
C420        C  0.99530813  0.63264476  0.59111068    -0.09800
H421        H  0.91009026  0.60092163  0.61903924     0.08100
H422        H  0.88519225  0.65830678  0.59684255     0.11800
H423        H  0.00145812  0.68422675  0.56762926     0.11500
H424        H  0.02610662  0.62562459  0.58940754     0.08100
C425        C  0.47657778  0.88888785  0.68707661    -0.11000
C426        C  0.47918553  0.88868744  0.71454207     0.06100
C427        C  0.49492286  0.92164042  0.72729430    -0.09800
C428        C  0.50641410  0.95471643  0.71294608    -0.11500
C429        C  0.50178657  0.95604997  0.68536634    -0.01200
C430        C  0.48813543  0.92173527  0.67275168    -0.10400
C431        C  0.46461204  0.85443353  0.72967853     0.06100
H432        H  0.49781228  0.92210207  0.74845495     0.08000
H433        H  0.51945703  0.97867546  0.72373556     0.11500
H434        H  0.48578551  0.92073044  0.65155926     0.11800
H435        H  0.46567939  0.86347007  0.67658958     0.08100
C436        C  0.42933607  0.83610642  0.72240967    -0.11100
C437        C  0.41522233  0.80382405  0.73630801    -0.10300
C438        C  0.43599758  0.78892741  0.75790612    -0.01300
C439        C  0.47133460  0.80727862  0.76525991    -0.11400
C440        C  0.48544086  0.83979979  0.75133201    -0.09800
H441        H  0.41233239  0.84701456  0.70604705     0.08100
H442        H  0.38810763  0.79047947  0.72984002     0.11800
H443        H  0.48803643  0.79673299  0.78183807     0.11500
H444        H  0.51288059  0.85317145  0.75727460     0.08100
C445        C  0.16091189  0.51613953  0.76430464    -0.11000
C446        C  0.13821468  0.53964961  0.74766221     0.06100
C447        C  0.14761252  0.57955554  0.74521762    -0.09800
C448        C  0.17987884  0.59534042  0.75831888    -0.11500
C449        C  0.20372302  0.57156168  0.77409518    -0.01200
C450        C  0.19329329  0.53195062  0.77745165    -0.10400
C451        C  0.10615324  0.52259985  0.73166587     0.06100
H452        H  0.13084437  0.59836610  0.73237406     0.08000
H453        H  0.18645682  0.62605429  0.75549946     0.11500
H454        H  0.21065932  0.51273937  0.78958580     0.11800
H455        H  0.15393358  0.48540093  0.76686757     0.08100
C456        C  0.11104507  0.48664485  0.71872531    -0.11100
C457        C  0.08253939  0.47276083  0.70130108    -0.10300
C458        C  0.04880282  0.49508927  0.69581222    -0.01300
C459        C  0.04282865  0.52947532  0.71069655    -0.11400
C460        C  0.07125844  0.54330475  0.72801445    -0.09800
H461        H  0.13743254  0.46968487  0.72152172     0.08100
H462        H  0.08721182  0.44443069  0.69245393     0.11800
H463        H  0.01634032  0.54640084  0.70821685     0.11500
H464        H  0.06609704  0.57049676  0.73837753     0.08100
C465        C  0.38069083  0.09163477  0.59884221    -0.11000
C466        C  0.38726593  0.05136529  0.60198708     0.06100
C467        C  0.36208554  0.02460353  0.58950160    -0.09800
C468        C  0.33023418  0.03773943  0.57481209    -0.11500
C469        C  0.32257160  0.07801505  0.57244801    -0.01200
C470        C  0.34857191  0.10483863  0.58430192    -0.10400
C471        C  0.41919364  0.03699917  0.61910597     0.06100
H472        H  0.36684502  0.99338534  0.59135834     0.08000
H473        H  0.31108785  0.01610510  0.56600700     0.11500
H474        H  0.34392222  0.13605423  0.58268504     0.11800
H475        H  0.39966677  0.11286300  0.60832692     0.08100
C476        C  0.45719144  0.05256816  0.61736633    -0.11100
C477        C  0.48719960  0.03791042  0.63320700    -0.10300
C478        C  0.48028515  0.00683096  0.65099657    -0.01300
C479        C  0.44122587  0.99335198  0.65369381    -0.11400
C480        C  0.41144534  0.00769270  0.63766024    -0.09800
H481        H  0.46383180  0.07561869  0.60343858     0.08100
H482        H  0.51630539  0.05036285  0.63124666     0.11800
H483        H  0.43286558  0.97217542  0.66840706     0.11500
H484        H  0.38197853  0.99629887  0.64010510     0.08100
C485        C  0.01186319  0.38427685  0.63775311    -0.11000
C486        C  0.04834444  0.38380429  0.62493358     0.06100
C487        C  0.07364720  0.41607884  0.62847425    -0.09800
C488        C  0.06296016  0.44740710  0.64455952    -0.11500
C489        C  0.02788254  0.44647475  0.65917721    -0.01200
C490        C  0.00186278  0.41486745  0.65461255    -0.10400
C491        C  0.06003816  0.34967672  0.60830826     0.06100
H492        H  0.10209660  0.41720365  0.61915479     0.08000
H493        H  0.08273627  0.47220176  0.64616757     0.11500
H494        H  0.97298313  0.41401012  0.66331307     0.11800
H495        H  0.99049359  0.36125551  0.63455848     0.08100
C496        C  0.04554975  0.31175037  0.61372658    -0.11100
C497        C  0.05766530  0.27956068  0.59891633    -0.10300
C498        C  0.08549635  0.28429045  0.57896971    -0.01300
C499        C  0.09986160  0.32180416  0.57323069    -0.11400
C500        C  0.08672467  0.35426877  0.58738263    -0.09800
H501        H  0.02576021  0.30646534  0.62993482     0.08100
H502        H  0.04660850  0.25067028  0.60381232     0.11800
H503        H  0.12118547  0.32596530  0.55771408     0.11500
H504        H  0.09775367  0.38285933  0.58188758     0.08100
C505        C  0.53452768  0.15950138  0.73649108    -0.11000
C506        C  0.56104075  0.12951176  0.73016815     0.06100
C507        C  0.60010363  0.13306821  0.73863635    -0.09800
C508        C  0.61270108  0.16622009  0.75228661    -0.11500
C509        C  0.58647862  0.19651266  0.75815801    -0.01200
C510        C  0.54710906  0.19261737  0.75046275    -0.10400
C511        C  0.54873658  0.09505706  0.71421747     0.06100
H512        H  0.62108958  0.11011797  0.73472288     0.08000
H513        H  0.64303961  0.16795960  0.75837219     0.11500
H514        H  0.52627909  0.21562550  0.75457795     0.11800
H515        H  0.50434428  0.15790073  0.73004550     0.08100
C516        C  0.51164059  0.07765303  0.71732349    -0.11100
C517        C  0.50102482  0.04472968  0.70250007    -0.10300
C518        C  0.52755707  0.02743761  0.68467594    -0.01300
C519        C  0.56395749  0.04653360  0.68081203    -0.11400
C520        C  0.57438031  0.07944629  0.69545415    -0.09800
H521        H  0.49097564  0.08910155  0.73146914     0.08100
H522        H  0.47212048  0.03214512  0.70524714     0.11800
H523        H  0.58448607  0.03713525  0.66599394     0.11500
H524        H  0.60247928  0.09318544  0.69165484     0.08100
C525        C  0.85973794  0.46505149  0.75672876    -0.11000
C526        C  0.88562007  0.43814074  0.74517118     0.06100
C527        C  0.87785441  0.39790135  0.74793203    -0.09800
C528        C  0.84456382  0.38487567  0.76122452    -0.11500
C529        C  0.81791528  0.41171127  0.77192748    -0.01200
C530        C  0.82620948  0.45196762  0.76995713    -0.10400
C531        C  0.91953865  0.45157021  0.72917530     0.06100
H532        H  0.89680188  0.37630237  0.73904021     0.08000
H533        H  0.83950482  0.35365855  0.76268454     0.11500
H534        H  0.80635751  0.47347290  0.77799331     0.11800
H535        H  0.86518584  0.49624242  0.75537147     0.08100
C536        C  0.91650703  0.48456404  0.71286560    -0.11100
C537        C  0.94725274  0.49521467  0.69618355    -0.10300
C538        C  0.98149787  0.47227381  0.69460711    -0.01300
C539        C  0.98511521  0.44062873  0.71224030    -0.11400
C540        C  0.95465876  0.43037682  0.72915174    -0.09800
H541        H  0.89000315  0.50182653  0.71253454     0.08100
H542        H  0.94384569  0.52167019  0.68484198     0.11800
H543        H  0.01161982  0.42332732  0.71256136     0.11500
H544        H  0.95860022  0.40561472  0.74212786     0.08100
loop_ 
_geom_bond_atom_site_label_1 
_geom_bond_atom_site_label_2 
_geom_bond_distance 
_geom_bond_site_symmetry_2 
_ccdc_geom_bond_type 
N1            N2   1.320       .  A
N1            C5   1.341       .  A
N1           Cu9   2.063       .  S
N2            C3   1.346       .  A
N2           Cu8   2.071       .  S
C3            C4   1.388       .  A
C3            H6   1.081       .  S
C4            C5   1.385       .  A
C4          C529   1.481       .  S
C5            H7   1.081       .  S
Cu8          N11   2.072       .  S
Cu9          N19   2.063       .  S
Cu10         N12   2.079       .  S
Cu10         N18   2.078       .  S
N11          N12   1.324       .  A
N11          C15   1.344       .  A
N12          C13   1.346       .  A
C13          C14   1.383       .  A
C13          H16   1.082       .  S
C14          C15   1.381       .  A
C14         C109   1.467       .  S
C15          H17   1.082       .  S
N18          N19   1.321       .  A
N18          C22   1.347       .  A
N19          C20   1.342       .  A
C20          C21   1.384       .  A
C20          H23   1.082       .  S
C21          C22   1.388       .  A
C21         C509   1.481       .  S
C22          H24   1.081       .  S
N25          N26   1.321       .  A
N25          C29   1.345       .  A
N25         Cu33   2.074       .  S
N26          C27   1.343       .  A
N26         Cu32   2.071       .  S
C27          C28   1.388       .  A
C27          H30   1.081       .  S
C28          C29   1.388       .  A
C28         C469   1.486       .  S
C29          H31   1.081       .  S
Cu32         N35   2.070       .  S
Cu33         N43   2.073       .  S
Cu34         N36   2.072       .  S
Cu34         N42   2.072       .  S
N35          N36   1.322       .  A
N35          C39   1.345       .  A
N36          C37   1.344       .  A
C37          C38   1.382       .  A
C37          H40   1.082       .  S
C38          C39   1.382       .  A
C38         C124   1.466       .  S
C39          H41   1.082       .  S
N42          N43   1.322       .  A
N42          C46   1.346       .  A
N43          C44   1.344       .  A
C44          C45   1.382       .  A
C44          H47   1.082       .  S
C45          C46   1.383       .  A
C45         C498   1.471       .  S
C46          H48   1.082       .  S
N49          N50   1.319       .  A
N49          C53   1.341       .  A
N49         Cu57   2.062       .  S
N50          C51   1.344       .  A
N50         Cu56   2.065       .  S
C51          C52   1.388       .  A
C51          H54   1.081       .  S
C52          C53   1.388       .  A
C52         C449   1.483       .  S
C53          H55   1.081       .  S
Cu56         N59   2.066       .  S
Cu57         N67   2.063       .  S
Cu58         N60   2.082       .  S
Cu58         N66   2.081       .  S
N59          N60   1.324       .  A
N59          C63   1.343       .  A
N60          C61   1.346       .  A
C61          C62   1.384       .  A
C61          H64   1.082       .  S
C62          C63   1.380       .  A
C62         C112   1.467       .  S
C63          H65   1.082       .  S
N66          N67   1.321       .  A
N66          C70   1.347       .  A
N67          C68   1.341       .  A
C68          C69   1.386       .  A
C68          H71   1.081       .  S
C69          C70   1.390       .  A
C69         C438   1.485       .  S
C70          H72   1.081       .  S
N73          N74   1.320       .  A
N73          C77   1.341       .  A
N73         Cu81   2.062       .  S
N74          C75   1.346       .  A
N74         Cu80   2.073       .  S
C75          C76   1.389       .  A
C75          H78   1.082       .  S
C76          C77   1.386       .  A
C76         C389   1.483       .  S
C77          H79   1.081       .  S
Cu80         N83   2.073       .  S
Cu81         N91   2.062       .  S
Cu82         N84   2.069       .  S
Cu82         N90   2.068       .  S
N83          N84   1.324       .  A
N83          C87   1.344       .  A
N84          C85   1.344       .  A
C85          C86   1.380       .  A
C85          H88   1.082       .  S
C86          C87   1.381       .  A
C86         C125   1.464       .  S
C87          H89   1.082       .  S
N90          N91   1.319       .  A
N90          C94   1.346       .  A
N91          C92   1.340       .  A
C92          C93   1.386       .  A
C92          H95   1.081       .  S
C93          C94   1.389       .  A
C93         C418   1.483       .  S
C94          H96   1.081       .  S
C97         C409   1.549       .  S
C97         C458   1.548       .  S
C97         C489   1.549       .  S
C97         C538   1.548   1_455  S
C98         C398   1.552       .  S
C98         C429   1.553       .  S
C98         C478   1.553   1_565  S
C98         C518   1.552   1_565  S
O99        Cu107   2.007       .  S
O99         C109   1.277       .  A
O100       Cu107   2.008       .  S
O100        C110   1.277       .  A
O101       Cu107   2.007       .  S
O101        C111   1.278       .  A
O102       Cu107   2.007       .  S
O102        C112   1.277       .  A
O103       Cu108   2.008       .  S
O103        C112   1.278       .  A
O104       Cu108   2.009       .  S
O104        C111   1.277       .  A
O105       Cu108   2.010       .  S
O105        C110   1.278       .  A
O106       Cu108   2.009       .  S
O106        C109   1.277       .  A
Cu107      Cu108   2.376       .  S
C110        C188   1.468       .  S
C111        C140   1.468       .  S
O113       Cu121   2.008       .  S
O113        C123   1.278   1_455  A
O114       Cu121   2.012       .  S
O114        C124   1.278   1_565  A
O115       Cu121   2.004       .  S
O115        C125   1.277   1_455  A
O116       Cu121   2.004       .  S
O116        C126   1.277   1_565  A
O117       Cu122   2.003   1_455  S
O117        C126   1.277       .  A
O118       Cu122   2.001   1_565  S
O118        C125   1.277       .  A
O119       Cu122   2.001   1_455  S
O119        C124   1.277       .  A
O120       Cu122   2.005   1_565  S
O120        C123   1.277       .  A
Cu121      Cu122   2.377   1_465  S
C123        C212   1.466       .  S
C126        C164   1.464       .  S
N127        N128   1.319       .  A
N127        C131   1.339       .  A
N127       Cu135   2.052       .  S
N128        C129   1.348       .  A
N128       Cu134   2.075       .  S
C129        C130   1.389       .  A
C129        H132   1.082       .  S
C130        C131   1.382       .  A
C130        C378   1.477       .  S
C131        H133   1.082       .  S
Cu134       N137   2.076       .  S
Cu135       N145   2.052       .  S
Cu136       N138   2.085       .  S
Cu136       N144   2.083       .  S
N137        N138   1.325       .  A
N137        C141   1.344   1_554  A
N138        C139   1.347   1_554  A
C139        C140   1.383       .  A
C139        H142   1.082       .  S
C140        C141   1.380       .  A
C141        H143   1.082       .  S
N144        N145   1.320       .  A
N144        C148   1.348       .  A
N145        C146   1.339       .  A
C146        C147   1.383       .  A
C146        H149   1.081       .  S
C147        C148   1.391       .  A
C147        C349   1.482       .  S
C148        H150   1.082       .  S
N151        N152   1.321       .  A
N151        C155   1.342       .  A
N151       Cu159   2.063       .  S
N152        C153   1.344       .  A
N152       Cu158   2.069       .  S
C153        C154   1.385       .  A
C153        H156   1.082       .  S
C154        C155   1.382       .  A
C154        C329   1.474       .  S
C155        H157   1.082       .  S
Cu158       N161   2.069       .  S
Cu159       N169   2.063       .  S
Cu160       N162   2.069       .  S
Cu160       N168   2.068       .  S
N161        N162   1.323       .  A
N161        C165   1.344       .  A
N162        C163   1.343       .  A
C163        C164   1.381       .  A
C163        H166   1.082       .  S
C164        C165   1.382       .  A
C165        H167   1.082       .  S
N168        N169   1.320       .  A
N168        C172   1.345       .  A
N169        C170   1.341       .  A
C170        C171   1.386       .  A
C170        H173   1.081       .  S
C171        C172   1.387       .  A
C171        C318   1.480       .  S
C172        H174   1.081       .  S
N175        N176   1.320       .  A
N175        C179   1.341       .  A
N175       Cu183   2.065       .  S
N176        C177   1.347       .  A
N176       Cu182   2.075       .  S
C177        C178   1.389       .  A
C177        H180   1.081       .  S
C178        C179   1.386       .  A
C178        C298   1.484       .  S
C179        H181   1.081       .  S
Cu182       N185   2.076       .  S
Cu183       N193   2.065       .  S
Cu184       N186   2.079       .  S
Cu184       N192   2.078       .  S
N185        N186   1.324       .  A
N185        C189   1.345   1_554  A
N186        C187   1.345   1_554  A
C187        C188   1.382       .  A
C187        H190   1.082       .  S
C188        C189   1.382       .  A
C189        H191   1.082       .  S
N192        N193   1.320       .  A
N192        C196   1.347       .  A
N193        C194   1.342       .  A
C194        C195   1.385       .  A
C194        H197   1.081       .  S
C195        C196   1.389       .  A
C195        C278   1.483       .  S
C196        H198   1.081       .  S
N199        N200   1.321       .  A
N199        C203   1.343       .  A
N199       Cu207   2.065       .  S
N200        C201   1.342       .  A
N200       Cu206   2.065       .  S
C201        C202   1.386       .  A
C201        H204   1.081       .  S
C202        C203   1.386       .  A
C202        C249   1.480       .  S
C203        H205   1.081       .  S
Cu206       N209   2.066       .  S
Cu207       N217   2.066       .  S
Cu208       N210   2.075       .  S
Cu208       N216   2.076       .  S
N209        N210   1.322       .  A
N209        C213   1.344       .  A
N210        C211   1.345       .  A
C211        C212   1.383       .  A
C211        H214   1.081       .  S
C212        C213   1.382       .  A
C213        H215   1.082       .  S
N216        N217   1.321       .  A
N216        C220   1.345       .  A
N217        C218   1.344       .  A
C218        C219   1.383       .  A
C218        H221   1.082       .  S
C219        C220   1.386       .  A
C219        C229   1.477       .  S
C220        H222   1.082       .  S
C223        C258   1.547   1_455  S
C223        C289   1.552       .  S
C223        C309   1.550       .  S
C223        C369   1.548   1_455  S
C224        C238   1.552       .  S
C224        C269   1.550       .  S
C224        C338   1.550   1_565  S
C224        C358   1.549   1_565  S
C225        C226   1.408       .  A
C225        C230   1.399       .  A
C225        H235   1.082       .  S
C226        C227   1.407       .  A
C226        C231   1.490       .  S
C227        C228   1.396       .  A
C227        H232   1.082       .  S
C228        C229   1.402       .  A
C228        H233   1.083       .  S
C229        C230   1.404       .  A
C230        H234   1.083       .  S
C231        C236   1.405       .  A
C231        C240   1.404       .  A
C236        C237   1.398       .  A
C236        H241   1.082       .  S
C237        C238   1.413       .  A
C237        H242   1.079       .  S
C238        C239   1.412       .  A
C239        C240   1.395       .  A
C239        H243   1.083   1_565  S
C240        H244   1.082   1_565  S
C245        C246   1.404       .  A
C245        C250   1.394       .  A
C245        H255   1.083   1_655  S
C246        C247   1.404       .  A
C246        C251   1.479       .  S
C247        C248   1.397       .  A
C247        H252   1.083       .  S
C248        C249   1.406       .  A
C248        H253   1.082       .  S
C249        C250   1.405       .  A
C250        H254   1.081       .  S
C251        C256   1.403       .  A
C251        C260   1.401       .  A
C256        C257   1.394   1_655  A
C256        H261   1.083   1_655  S
C257        C258   1.412   1_455  A
C257        H262   1.079       .  S
C258        C259   1.413       .  A
C259        C260   1.394       .  A
C259        H263   1.083       .  S
C260        H264   1.083       .  S
C265        C266   1.403       .  A
C265        C270   1.393       .  A
C265        H275   1.083       .  S
C266        C267   1.404       .  A
C266        C271   1.486       .  S
C267        C268   1.399       .  A
C267        H272   1.082       .  S
C268        C269   1.413       .  A
C268        H273   1.083       .  S
C269        C270   1.413       .  A
C270        H274   1.080       .  S
C271        C276   1.405       .  A
C271        C280   1.407       .  A
C276        C277   1.393       .  A
C276        H281   1.083       .  S
C277        C278   1.404       .  A
C277        H282   1.082       .  S
C278        C279   1.406       .  A
C279        C280   1.402       .  A
C279        H283   1.082       .  S
C280        H284   1.083       .  S
C285        C286   1.403       .  A
C285        C290   1.395       .  A
C285        H295   1.083       .  S
C286        C287   1.402       .  A
C286        C291   1.485       .  S
C287        C288   1.398       .  A
C287        H292   1.083       .  S
C288        C289   1.415       .  A
C288        H293   1.080       .  S
C289        C290   1.412       .  A
C290        H294   1.083       .  S
C291        C296   1.404       .  A
C291        C300   1.406       .  A
C296        C297   1.394       .  A
C296        H301   1.083       .  S
C297        C298   1.406       .  A
C297        H302   1.081       .  S
C298        C299   1.407       .  A
C299        C300   1.401       .  A
C299        H303   1.082       .  S
C300        H304   1.083       .  S
C305        C306   1.402       .  A
C305        C310   1.393       .  A
C305        H315   1.083       .  S
C306        C307   1.400       .  A
C306        C311   1.478       .  S
C307        C308   1.397       .  A
C307        H312   1.083       .  S
C308        C309   1.417       .  A
C308        H313   1.079       .  S
C309        C310   1.411       .  A
C310        H314   1.083       .  S
C311        C316   1.404       .  A
C311        C320   1.402       .  A
C316        C317   1.400       .  A
C316        H321   1.083       .  S
C317        C318   1.407       .  A
C317        H322   1.082       .  S
C318        C319   1.405       .  A
C319        C320   1.393       .  A
C319        H323   1.081       .  S
C320        H324   1.083       .  S
C325        C326   1.407       .  A
C325        C330   1.395       .  A
C325        H335   1.082   1_545  S
C326        C327   1.406       .  A
C326        C331   1.485       .  S
C327        C328   1.397       .  A
C327        H332   1.083       .  S
C328        C329   1.404       .  A
C328        H333   1.083       .  S
C329        C330   1.402       .  A
C330        H334   1.083       .  S
C331        C336   1.402   1_545  A
C331        C340   1.405       .  A
C336        C337   1.393       .  A
C336        H341   1.083       .  S
C337        C338   1.412   1_565  A
C337        H342   1.083       .  S
C338        C339   1.413       .  A
C339        C340   1.397       .  A
C339        H343   1.080       .  S
C340        H344   1.083       .  S
C345        C346   1.405       .  A
C345        C350   1.394       .  A
C345        H355   1.082       .  S
C346        C347   1.408       .  A
C346        C351   1.489       .  S
C347        C348   1.401       .  A
C347        H352   1.082       .  S
C348        C349   1.404       .  A
C348        H353   1.082       .  S
C349        C350   1.405       .  A
C350        H354   1.082       .  S
C351        C356   1.405       .  A
C351        C360   1.404       .  A
C356        C357   1.396       .  A
C356        H361   1.083       .  S
C357        C358   1.412       .  A
C357        H362   1.080       .  S
C358        C359   1.413       .  A
C359        C360   1.396       .  A
C359        H363   1.083       .  S
C360        H364   1.082       .  S
C365        C366   1.401       .  A
C365        C370   1.395       .  A
C365        H375   1.083       .  S
C366        C367   1.405       .  A
C366        C371   1.483       .  S
C367        C368   1.395       .  A
C367        H372   1.083       .  S
C368        C369   1.411       .  A
C368        H373   1.080       .  S
C369        C370   1.414       .  A
C370        H374   1.083       .  S
C371        C376   1.408       .  A
C371        C380   1.403       .  A
C376        C377   1.401       .  A
C376        H381   1.083       .  S
C377        C378   1.404       .  A
C377        H382   1.083       .  S
C378        C379   1.404       .  A
C379        C380   1.392       .  A
C379        H383   1.082       .  S
C380        H384   1.083       .  S
C385        C386   1.403       .  A
C385        C390   1.395       .  A
C385        H395   1.083       .  S
C386        C387   1.405       .  A
C386        C391   1.481       .  S
C387        C388   1.400       .  A
C387        H392   1.083       .  S
C388        C389   1.406       .  A
C388        H393   1.082       .  S
C389        C390   1.406       .  A
C390        H394   1.081       .  S
C391        C396   1.402       .  A
C391        C400   1.401       .  A
C396        C397   1.400       .  A
C396        H401   1.083       .  S
C397        C398   1.415       .  A
C397        H402   1.078       .  S
C398        C399   1.413       .  A
C399        C400   1.393       .  A
C399        H403   1.083       .  S
C400        H404   1.083       .  S
C405        C406   1.402   1_455  A
C405        C410   1.396       .  A
C405        H415   1.083       .  S
C406        C407   1.403       .  A
C406        C411   1.482       .  S
C407        C408   1.395       .  A
C407        H412   1.083       .  S
C408        C409   1.411   1_655  A
C408        H413   1.083       .  S
C409        C410   1.415       .  A
C410        H414   1.080       .  S
C411        C416   1.403       .  A
C411        C420   1.405       .  A
C416        C417   1.393       .  A
C416        H421   1.083       .  S
C417        C418   1.406       .  A
C417        H422   1.081       .  S
C418        C419   1.407       .  A
C419        C420   1.400       .  A
C419        H423   1.082   1_655  S
C420        H424   1.083   1_655  S
C425        C426   1.402       .  A
C425        C430   1.394       .  A
C425        H435   1.083       .  S
C426        C427   1.403       .  A
C426        C431   1.485       .  S
C427        C428   1.400       .  A
C427        H432   1.083       .  S
C428        C429   1.415       .  A
C428        H433   1.079       .  S
C429        C430   1.413       .  A
C430        H434   1.083       .  S
C431        C436   1.403       .  A
C431        C440   1.406       .  A
C436        C437   1.394       .  A
C436        H441   1.083       .  S
C437        C438   1.406       .  A
C437        H442   1.081       .  S
C438        C439   1.407       .  A
C439        C440   1.401       .  A
C439        H443   1.082       .  S
C440        H444   1.083       .  S
C445        C446   1.404       .  A
C445        C450   1.398       .  A
C445        H455   1.083       .  S
C446        C447   1.404       .  A
C446        C451   1.481       .  S
C447        C448   1.394       .  A
C447        H452   1.083       .  S
C448        C449   1.406       .  A
C448        H453   1.081       .  S
C449        C450   1.407       .  A
C450        H454   1.081       .  S
C451        C456   1.404       .  A
C451        C460   1.401       .  A
C456        C457   1.398       .  A
C456        H461   1.083       .  S
C457        C458   1.412       .  A
C457        H462   1.080       .  S
C458        C459   1.413       .  A
C459        C460   1.392       .  A
C459        H463   1.083       .  S
C460        H464   1.083       .  S
C465        C466   1.404       .  A
C465        C470   1.400       .  A
C465        H475   1.083       .  S
C466        C467   1.403       .  A
C466        C471   1.482       .  S
C467        C468   1.396       .  A
C467        H472   1.083   1_545  S
C468        C469   1.407       .  A
C468        H473   1.081       .  S
C469        C470   1.408       .  A
C470        H474   1.082       .  S
C471        C476   1.402       .  A
C471        C480   1.401       .  A
C476        C477   1.399       .  A
C476        H481   1.083       .  S
C477        C478   1.415       .  A
C477        H482   1.083       .  S
C478        C479   1.414   1_545  A
C479        C480   1.395   1_565  A
C479        H483   1.079       .  S
C480        H484   1.083   1_545  S
C485        C486   1.406       .  A
C485        C490   1.396       .  A
C485        H495   1.082   1_455  S
C486        C487   1.408       .  A
C486        C491   1.496       .  S
C487        C488   1.397       .  A
C487        H492   1.081       .  S
C488        C489   1.410       .  A
C488        H493   1.083       .  S
C489        C490   1.413       .  A
C490        H494   1.081   1_455  S
C491        C496   1.411       .  A
C491        C500   1.410       .  A
C496        C497   1.397       .  A
C496        H501   1.081       .  S
C497        C498   1.400       .  A
C497        H502   1.083       .  S
C498        C499   1.400       .  A
C499        C500   1.398       .  A
C499        H503   1.083       .  S
C500        H504   1.081       .  S
C505        C506   1.407       .  A
C505        C510   1.401       .  A
C505        H515   1.082       .  S
C506        C507   1.406       .  A
C506        C511   1.488       .  S
C507        C508   1.394       .  A
C507        H512   1.083       .  S
C508        C509   1.404       .  A
C508        H513   1.082       .  S
C509        C510   1.405       .  A
C510        H514   1.083       .  S
C511        C516   1.405       .  A
C511        C520   1.403       .  A
C516        C517   1.400       .  A
C516        H521   1.083       .  S
C517        C518   1.414       .  A
C517        H522   1.083       .  S
C518        C519   1.414       .  A
C519        C520   1.393       .  A
C519        H523   1.080       .  S
C520        H524   1.083       .  S
C525        C526   1.407       .  A
C525        C530   1.399       .  A
C525        H535   1.082       .  S
C526        C527   1.405       .  A
C526        C531   1.486       .  S
C527        C528   1.393       .  A
C527        H532   1.083       .  S
C528        C529   1.404       .  A
C528        H533   1.082       .  S
C529        C530   1.406       .  A
C530        H534   1.082       .  S
C531        C536   1.405       .  A
C531        C540   1.403       .  A
C536        C537   1.397       .  A
C536        H541   1.082       .  S
C537        C538   1.413       .  A
C537        H542   1.079       .  S
C538        C539   1.412       .  A
C539        C540   1.393       .  A
C539        H543   1.083   1_655  S
C540        H544   1.083       .  S
