geometry optimzed in LAMMPS
_audit_creation_date              2020-11-30 
_audit_creation_method            'lammps2cif' 
_symmetry_space_group_name_H-M    'P1' 
_symmetry_Int_Tables_number       1 
_symmetry_cell_setting            triclinic 
loop_ 
_symmetry_equiv_pos_as_xyz 
  x,y,z 
_cell_length_a                    22.981667816777456 
_cell_length_b                    66.08063999897848 
_cell_length_c                    38.68187484155168 
_cell_angle_alpha                 91.06541396376839 
_cell_angle_beta                  89.61127888860747 
_cell_angle_gamma                 89.78150971858828 
loop_ 
_atom_site_label 
_atom_site_type_symbol 
_atom_site_fract_x 
_atom_site_fract_y 
_atom_site_fract_z 
_atom_site_charge 
C1          C  0.23615651  0.11653384  0.00424046     0.04020
C2          C  0.22895268  0.10585465  0.03531606    -0.12130
C3          C  0.21321355  0.08535005  0.03585435     0.01520
C4          C  0.20361557  0.07542344  0.20316288    -0.10660
C5          C  0.21353097  0.08527184  0.17094667     0.04110
C6          C  0.23056407  0.10569335  0.17257672    -0.10080
H7          H  0.23845959  0.11312321  0.05963405     0.09600
H8          H  0.18847644  0.05999457  0.20285379     0.07130
H9          H  0.24261565  0.11286674  0.14883663     0.06980
C10         C  0.24492513  0.95536117  0.09896779     0.04020
C11         C  0.25158273  0.94491957  0.06726767    -0.12130
C12         C  0.26047474  0.92382671  0.06549704     0.01520
C13         C  0.26549151  0.91372667  0.09794722    -0.10660
C14         C  0.25662252  0.92392683  0.13067930     0.04010
C15         C  0.24610032  0.94486266  0.13008087    -0.10080
H16         H  0.24828635  0.95367462  0.04411108     0.09600
H17         H  0.27740101  0.89798138  0.09801777     0.07130
H18         H  0.23770992  0.95334749  0.15375595     0.06980
C19         C  0.22723788  0.04281632  0.10190415     0.04020
C20         C  0.22153886  0.05316875  0.13379217    -0.12130
C21         C  0.21202483  0.07418476  0.13567728     0.01520
C22         C  0.20543271  0.08443148  0.10347054    -0.10660
C23         C  0.21245220  0.07428557  0.07047035     0.04010
C24         C  0.22354980  0.05337296  0.07083388    -0.10080
H25         H  0.22620887  0.04457971  0.15711901     0.09600
H26         H  0.19431792  0.10030980  0.10417383     0.07130
H27         H  0.23084360  0.04501069  0.04688664     0.06980
C28         C  0.24963113  0.88081137  0.19629416     0.04020
C29         C  0.25464619  0.89146108  0.02814199    -0.12130
C30         C  0.26071822  0.91267918  0.03010588     0.01520
C31         C  0.26502233  0.92295682  0.19786916    -0.10660
C32         C  0.25629607  0.91290341  0.16524417     0.04010
C33         C  0.24580178  0.89199830  0.16572473    -0.10080
H34         H  0.25475337  0.88299654  0.05152440     0.09600
H35         H  0.27618758  0.93874053  0.19795678     0.07130
H36         H  0.23462430  0.88436966  0.14192326     0.06980
C37         C  0.25606659  0.85810791  0.19468124     0.04020
C38         C  0.25102540  0.84605780  0.02455109    -0.12130
C39         C  0.27427536  0.82629950  0.02381552     0.01520
C40         C  0.30769924  0.82002000  0.19575071    -0.10660
C41         C  0.29285565  0.82793667  0.16447483     0.04010
C42         C  0.27065105  0.84769028  0.16338088    -0.10080
H43         H  0.22844777  0.85151355  0.04751996     0.09600
H44         H  0.32865101  0.80527010  0.19590227     0.07130
H45         H  0.26435287  0.85416116  0.13828330     0.06980
O46         O  0.22421922  0.81200988  0.12802090    -0.56930
C47         C  0.13289295  0.75864422  0.09926935     0.75700
O48         O  0.27821497  0.79281497  0.04458763    -0.58080
C49         C  0.27557464  0.81244768  0.13964702     0.75670
C50         C  0.33183400  0.75166583  0.09752467     0.78070
Cd51       Cd  0.23992057  0.78076901  0.09603053     1.37470
O52         O  0.15780594  0.76487671  0.12656599    -0.56920
O53         O  0.30741674  0.75819216  0.12507765    -0.55730
C54         C  0.25700684  0.81055107  0.04770011     0.78030
O55         O  0.31170305  0.75779896  0.06908588    -0.58100
O56         O  0.15561294  0.76358456  0.07076035    -0.56560
O57         O  0.30801738  0.79728257  0.13330894    -0.56550
O58         O  0.21910455  0.81360104  0.07099218    -0.55720
C59         C  0.50302070  0.63888370  0.20275836     0.04020
C60         C  0.51795729  0.64916497  0.03398107    -0.12130
C61         C  0.54137801  0.66870507  0.03275605     0.01520
C62         C  0.55723809  0.67640305  0.20137788    -0.10660
C63         C  0.52375090  0.67046024  0.17349186     0.04010
C64         C  0.49913055  0.65097413  0.17292078    -0.10080
H65         H  0.51092493  0.64275705  0.05910422     0.09600
H66         H  0.57911860  0.69092761  0.20105697     0.07130
H67         H  0.47635267  0.64576672  0.15008392     0.06980
O68         O  0.40889030  0.73233496  0.07137713    -0.56930
C69         C  0.02482047  0.68438693  0.05769363     0.75700
O70         O  0.06105965  0.73932374  0.12882346    -0.58080
C71         C  0.38313675  0.73848985  0.09868668     0.75670
C72         C  0.50734470  0.68638167  0.14979755     0.78070
Cd73       Cd  0.49040627  0.71631784  0.10173695     1.37470
O74         O  0.47414420  0.68485378  0.07067333    -0.56920
O75         O  0.46839727  0.68380924  0.12732161    -0.55730
C76         C  0.08194798  0.74540088  0.10040502     0.78030
O77         O  0.03018885  0.70382340  0.15235706    -0.58100
O78         O  0.05704688  0.69963251  0.06293111    -0.56560
O79         O  0.40531163  0.73353342  0.12719164    -0.56550
O80         O  0.05862640  0.73876337  0.07282394    -0.55720
O81         O  0.48083893  0.31180264  0.12918793    -0.56930
C82         C  0.39192813  0.25810234  0.10090212     0.75700
O83         O  0.04498885  0.29346913  0.04937806    -0.58080
C84         C  0.02979263  0.31164931  0.14393550     0.75670
C85         C  0.09098872  0.25108453  0.09996135     0.78070
Cd86       Cd  0.49917239  0.28022602  0.09860765     1.37460
O87         O  0.41658135  0.26425603  0.12830567    -0.56920
O88         O  0.06716108  0.25779373  0.12756880    -0.55730
C89         C  0.52083486  0.31077660  0.05159988     0.78030
O90         O  0.07034918  0.25707601  0.07154964    -0.58100
O91         O  0.41494524  0.26312285  0.07249988    -0.56560
O92         O  0.06095393  0.29588473  0.14019208    -0.56550
O93         O  0.47955756  0.31294157  0.07305999    -0.55720
C94         C  0.00941987  0.35785088  0.19869533     0.04020
C95         C  0.01135800  0.34623186  0.02925968    -0.12130
C96         C  0.03729546  0.32688426  0.02811750     0.01520
C97         C  0.06792243  0.32084721  0.19883162    -0.10660
C98         C  0.04608587  0.32769755  0.16815317     0.04010
C99         C  0.02005711  0.34693124  0.16732691    -0.10080
H100        H  0.99016088  0.35125563  0.05291881     0.09600
H101        H  0.09102705  0.30649440  0.19871351     0.07130
H102        H  0.00469682  0.35211113  0.14273050     0.06980
O103        O  0.23184954  0.18440718  0.07265863    -0.56930
C104        C  0.14225155  0.23787357  0.10099253     0.75700
O105        O  0.29300377  0.20241376  0.15313201    -0.58080
C106        C  0.28156895  0.18400539  0.05843406     0.75670
C107        C  0.34101632  0.24483687  0.10194154     0.78070
Cd108      Cd  0.24971561  0.21568915  0.10346152     1.37460
O109        O  0.16765407  0.23169142  0.07359954    -0.56920
O110        O  0.31789742  0.23811945  0.07435786    -0.55730
C111        C  0.26862603  0.18521556  0.15094335     0.78030
O112        O  0.32001397  0.23880444  0.13036672    -0.58100
O113        O  0.16479786  0.23292859  0.12941031    -0.56560
O114        O  0.31375401  0.19937223  0.06262216    -0.56550
O115        O  0.22819848  0.18316795  0.12925713    -0.55720
C116        C  0.25581932  0.13835299  0.00456142     0.04020
C117        C  0.27077068  0.14885865  0.03555441    -0.12130
C118        C  0.29728812  0.16790196  0.03401531     0.01520
C119        C  0.31633541  0.17483843  0.00265610    -0.10660
C120        C  0.28436152  0.16904851  0.17444472     0.04010
C121        C  0.25692669  0.15001777  0.17411873    -0.10080
H122        H  0.25841768  0.14360537  0.06078522     0.09600
H123        H  0.33993248  0.18902555  0.00219294     0.07130
H124        H  0.23350387  0.14527215  0.15125400     0.06980
C125        C  0.49173021  0.37993293  0.19930727     0.04020
C126        C  0.48573575  0.39075501  0.03102369    -0.12130
C127        C  0.46981522  0.41133960  0.03278739     0.01520
C128        C  0.46051588  0.42125127  0.20061525    -0.10660
C129        C  0.47071314  0.41133533  0.16787849     0.04010
C130        C  0.48641821  0.39077940  0.16830520    -0.10080
H131        H  0.49689895  0.38343497  0.05466892     0.09600
H132        H  0.44541934  0.43671969  0.20093730     0.07130
H133        H  0.49742343  0.38357737  0.14405749     0.06980
C134        C  0.99576333  0.54144224  0.09836874     0.04020
C135        C  0.99358954  0.55202304  0.06736066    -0.12130
C136        C  0.00198486  0.57306610  0.06665806     0.01520
C137        C  0.01028079  0.58331492  0.09929681    -0.10660
C138        C  0.00629204  0.57318821  0.13178536     0.04010
C139        C  0.99975081  0.55201206  0.13003579    -0.10080
H140        H  0.98437956  0.54354140  0.04391314     0.09600
H141        H  0.02085721  0.59912877  0.09910300     0.07130
H142        H  0.99696215  0.54322230  0.15318243     0.06980
C143        C  0.47901735  0.45404060  0.10171699     0.04020
C144        C  0.47558819  0.44353992  0.06990420    -0.12130
C145        C  0.46806098  0.42244084  0.06810589     0.01520
C146        C  0.46241978  0.41220259  0.10041925    -0.10660
C147        C  0.46944771  0.42239356  0.13328194     0.04010
C148        C  0.47898100  0.44337744  0.13275741    -0.10080
H149        H  0.47975514  0.45215387  0.04655949     0.09600
H150        H  0.45207738  0.39630022  0.09999059     0.07130
H151        H  0.48768998  0.45166988  0.15649106     0.06980
C152        C  0.99527990  0.61624412  0.20113064     0.04020
C153        C  0.99069791  0.60506535  0.03168256    -0.12130
C154        C  0.00097687  0.58410660  0.03209811     0.01520
C155        C  0.00983615  0.57403949  0.19941759    -0.10660
C156        C  0.00588363  0.58433459  0.16720360     0.04010
C157        C  0.00026276  0.60558557  0.16925140    -0.10080
H158        H  0.97943405  0.61278345  0.05550230     0.09600
H159        H  0.02108646  0.55824471  0.19931005     0.07130
H160        H  0.00104375  0.61409171  0.14593117     0.06980
C161        C  0.44686932  0.51006111  0.11716917    -0.19420
C162        C  0.99177000  0.51902761  0.09816661    -0.05980
C163        C  0.03351527  0.50654851  0.08104368     0.14880
C164        C  0.02883280  0.48542945  0.08320862    -0.19470
C165        C  0.98377088  0.47645473  0.10215728    -0.05990
C166        C  0.44215870  0.48896738  0.11934636     0.14870
C167        C  0.39135495  0.48027401  0.13892227    -0.22820
H168        H  0.41505856  0.51968975  0.13026253     0.16160
H169        H  0.06063112  0.47580783  0.07008759     0.16190
C170        C  0.08414359  0.51534145  0.06144630    -0.22770
H171        H  0.36094130  0.49227928  0.94830682     0.06400
H172        H  0.90674231  0.47210088  0.96191438     0.09630
H173        H  0.36666938  0.46977074  0.12182171     0.09630
H174        H  0.10902343  0.52572797  0.07865753     0.09610
H175        H  0.56851985  0.52370617  0.23871763     0.09610
H176        H  0.11445681  0.50336824  0.25170040     0.06390
C177        C  0.28020698  0.98907182  0.11808519    -0.19420
C178        C  0.23863508  0.97770844  0.09978465    -0.05980
C179        C  0.19408380  0.98790108  0.08188982     0.14880
C180        C  0.19301410  0.00910266  0.08237271    -0.19470
C181        C  0.23437480  0.02048466  0.10078513    -0.05990
C182        C  0.27921552  0.01029498  0.11849840     0.14870
C183        C  0.32800343  0.02113636  0.13689719    -0.22820
H184        H  0.31485846  0.98128822  0.13141108     0.16160
H185        H  0.15829802  0.01685588  0.06906060     0.16190
C186        C  0.14558625  0.97707840  0.06319034    -0.22770
H187        H  0.37040197  0.01549223  0.92675667     0.06400
H188        H  0.32559383  0.01804800  0.16499433     0.09630
H189        H  0.32733199  0.03771297  0.13330174     0.09630
H190        H  0.14616130  0.96049425  0.06667914     0.09610
H191        H  0.14843526  0.98021396  0.03512192     0.09610
H192        H  0.10308725  0.98269697  0.27322417     0.06390
C193        C  0.23660606  0.11649931  0.20422889     0.04020
C194        C  0.22947060  0.10581588  0.23530760    -0.12130
C195        C  0.21349095  0.08533446  0.23585270     0.01520
C196        C  0.20370987  0.07542326  0.40315478    -0.10660
C197        C  0.21364402  0.08527092  0.37093900     0.04110
C198        C  0.23064078  0.10569575  0.37257182    -0.10080
H199        H  0.23924954  0.11304853  0.25960809     0.09600
H200        H  0.18858917  0.05999261  0.40284403     0.07130
H201        H  0.24271520  0.11287077  0.34883753     0.06980
C202        C  0.24494571  0.95535165  0.29897029     0.04020
C203        C  0.25161228  0.94491155  0.26726993    -0.12130
C204        C  0.26049225  0.92381831  0.26549724     0.01520
C205        C  0.26549378  0.91371656  0.29794743    -0.10660
C206        C  0.25662224  0.92391663  0.33067985     0.04010
C207        C  0.24610347  0.94485219  0.33008177    -0.10080
H208        H  0.24833369  0.95366860  0.24411489     0.09600
H209        H  0.27739377  0.89797044  0.29801820     0.07130
H210        H  0.23770642  0.95333670  0.35375635     0.06980
C211        C  0.22736414  0.04280663  0.30190803     0.04020
C212        C  0.22165206  0.05316324  0.33379196    -0.12130
C213        C  0.21217895  0.07418218  0.33566949     0.01520
C214        C  0.20565645  0.08442792  0.30345568    -0.10660
C215        C  0.21267920  0.07427462  0.27046534     0.04010
C216        C  0.22372226  0.05336031  0.27083377    -0.10080
H217        H  0.22627916  0.04457386  0.35712115     0.09600
H218        H  0.19459697  0.10031100  0.30413413     0.07130
H219        H  0.23100990  0.04499692  0.24688631     0.06980
C220        C  0.24962419  0.88080440  0.39629949     0.04020
C221        C  0.25467184  0.89145525  0.22813553    -0.12130
C222        C  0.26074050  0.91267324  0.23010351     0.01520
C223        C  0.26501826  0.92294967  0.39786975    -0.10660
C224        C  0.25629221  0.91289478  0.36524586     0.04010
C225        C  0.24579554  0.89199017  0.36572877    -0.10080
H226        H  0.25478260  0.88298922  0.25151621     0.09600
H227        H  0.27618703  0.93873306  0.39795601     0.07130
H228        H  0.23461764  0.88436139  0.34192766     0.06980
C229        C  0.25605945  0.85810072  0.39468785     0.04020
C230        C  0.25104081  0.84605263  0.22453867    -0.12130
C231        C  0.27428475  0.82629350  0.22380187     0.01520
C232        C  0.30767971  0.82000984  0.39575124    -0.10660
C233        C  0.29283083  0.82792798  0.36447743     0.04010
C234        C  0.27062948  0.84768198  0.36338603    -0.10080
H235        H  0.22846378  0.85150837  0.24750776     0.09600
H236        H  0.32862472  0.80525875  0.39590020     0.07130
H237        H  0.26432350  0.85415225  0.33828881     0.06980
O238        O  0.22420919  0.81200504  0.32800887    -0.56930
C239        C  0.13289186  0.75863974  0.29925932     0.75700
O240        O  0.27822216  0.79280952  0.24457705    -0.58080
C241        C  0.27555880  0.81244101  0.33964382     0.75670
C242        C  0.33183396  0.75166164  0.29751689     0.78070
Cd243      Cd  0.23991934  0.78076436  0.29601947     1.37470
O244        O  0.15780558  0.76487266  0.32655528    -0.56920
O245        O  0.30741583  0.75818872  0.32506902    -0.55730
C246        C  0.25701512  0.81054582  0.24768775     0.78030
O247        O  0.31170371  0.75779387  0.26907737    -0.58100
O248        O  0.15561124  0.76357943  0.27074980    -0.56560
O249        O  0.30800244  0.79727584  0.33330787    -0.56550
O250        O  0.21911260  0.81359669  0.27097933    -0.55720
C251        C  0.50302475  0.63888138  0.40275773     0.04020
C252        C  0.51795023  0.64916131  0.23398038    -0.12130
C253        C  0.54137205  0.66870106  0.23275363     0.01520
C254        C  0.55724164  0.67640058  0.40137490    -0.10660
C255        C  0.52375352  0.67045744  0.37348957     0.04010
C256        C  0.49913325  0.65097136  0.37291967    -0.10080
H257        H  0.51092907  0.64275239  0.25910388     0.09600
H258        H  0.57912326  0.69092489  0.40105263     0.07130
H259        H  0.47635440  0.64576356  0.35008337     0.06980
O260        O  0.40889068  0.73233001  0.27137183    -0.56930
C261        C  0.02481882  0.68438264  0.25769195     0.75700
O262        O  0.06105923  0.73932071  0.32881620    -0.58080
C263        C  0.38313674  0.73848581  0.29868065     0.75670
C264        C  0.50734578  0.68637862  0.34979515     0.78070
Cd265      Cd  0.49040582  0.71631403  0.30173350     1.37470
O266        O  0.47414169  0.68485044  0.27067124    -0.56920
O267        O  0.46839815  0.68380573  0.32731950    -0.55730
C268        C  0.08194685  0.74539664  0.30039677     0.78030
O269        O  0.03018800  0.70382051  0.35235423    -0.58100
O270        O  0.05704807  0.69962741  0.26293000    -0.56560
O271        O  0.40531114  0.73353041  0.32718631    -0.56550
O272        O  0.05862455  0.73875815  0.27281660    -0.55720
O273        O  0.48090900  0.31179991  0.32910462    -0.56930
C274        C  0.39201598  0.25809602  0.30080291     0.75700
O275        O  0.04513651  0.29348431  0.24933159    -0.58080
C276        C  0.02981996  0.31163342  0.34389956     0.75670
C277        C  0.09108938  0.25108014  0.29984631     0.78070
Cd278      Cd  0.49926010  0.28022128  0.29852356     1.37460
O279        O  0.41668000  0.26424009  0.32820870    -0.56920
O280        O  0.06726949  0.25778597  0.32745831    -0.55730
C281        C  0.52097900  0.31079086  0.25156350     0.78030
O282        O  0.07044212  0.25707621  0.27143952    -0.58100
O283        O  0.41502411  0.26312570  0.27240303    -0.56560
O284        O  0.06096218  0.29586266  0.34017462    -0.56550
O285        O  0.47965216  0.31294302  0.27299331    -0.55720
C286        C  0.00944852  0.35783476  0.39868608     0.04020
C287        C  0.01149352  0.34625005  0.22924056    -0.12130
C288        C  0.03752196  0.32691645  0.22813562     0.01520
C289        C  0.06787492  0.32081472  0.39882588    -0.10660
C290        C  0.04607620  0.32767381  0.36814401     0.04010
C291        C  0.02008054  0.34691355  0.36731718    -0.10080
H292        H  0.99010167  0.35125620  0.25285026     0.09600
H293        H  0.09095132  0.30645652  0.39871063     0.07130
H294        H  0.00475137  0.35209957  0.34271793     0.06980
O295        O  0.23201214  0.18441895  0.27248071    -0.56930
C296        C  0.14234975  0.23786714  0.30087182     0.75700
O297        O  0.29285628  0.20243269  0.35311595    -0.58080
C298        C  0.28186280  0.18398099  0.25841910     0.75670
C299        C  0.34110202  0.24483116  0.30183897     0.78070
Cd300      Cd  0.24980554  0.21568046  0.30336108     1.37460
O301        O  0.16775382  0.23168399  0.27347871    -0.56920
O302        O  0.31796175  0.23812330  0.27425491    -0.55730
C303        C  0.26854982  0.18522305  0.35089480     0.78030
O304        O  0.32011887  0.23878967  0.33026292    -0.58100
O305        O  0.16489016  0.23292076  0.32929012    -0.56560
O306        O  0.31409145  0.19932797  0.26269942    -0.56550
O307        O  0.22823917  0.18315263  0.32913782    -0.55720
C308        C  0.25641845  0.13830375  0.20455394     0.04020
C309        C  0.27110517  0.14882645  0.23557639    -0.12130
C310        C  0.29774556  0.16785260  0.23408425     0.01520
C311        C  0.31714453  0.17475157  0.20276980    -0.10660
C312        C  0.28424704  0.16906694  0.37442796     0.04010
C313        C  0.25684598  0.15003014  0.37410751    -0.10080
H314        H  0.25836915  0.14361503  0.26076071     0.09600
H315        H  0.34077475  0.18893319  0.20235314     0.07130
H316        H  0.23343731  0.14527508  0.35124276     0.06980
C317        C  0.49178661  0.37992025  0.39930049     0.04020
C318        C  0.48591038  0.39076763  0.23101497    -0.12130
C319        C  0.46989924  0.41134331  0.23278728     0.01520
C320        C  0.46058890  0.42124020  0.40061124    -0.10660
C321        C  0.47079115  0.41132542  0.36787438     0.04010
C322        C  0.48648751  0.39076850  0.36829947    -0.10080
H323        H  0.49715488  0.38345167  0.25465358     0.09600
H324        H  0.44548988  0.43670819  0.40093313     0.07130
H325        H  0.49749128  0.38356627  0.34405183     0.06980
C326        C  0.99578303  0.54143926  0.29836875     0.04020
C327        C  0.99360295  0.55201979  0.26736042    -0.12130
C328        C  0.00198749  0.57306344  0.26665769     0.01520
C329        C  0.01028000  0.58331271  0.29929641    -0.10660
C330        C  0.00629854  0.57318582  0.33178520     0.04010
C331        C  0.99976792  0.55200934  0.33003552    -0.10080
H332        H  0.98439676  0.54353755  0.24391299     0.09600
H333        H  0.02084810  0.59912716  0.29910203     0.07130
H334        H  0.99698645  0.54321915  0.35318184     0.06980
C335        C  0.47908175  0.45403714  0.30172280     0.04020
C336        C  0.47565303  0.44353914  0.26990821    -0.12130
C337        C  0.46814085  0.42244013  0.26810620     0.01520
C338        C  0.46251271  0.41219729  0.30041471    -0.10660
C339        C  0.46952959  0.42238607  0.33328010     0.04010
C340        C  0.47905101  0.44337118  0.33276065    -0.10080
H341        H  0.47981186  0.45215433  0.24656393     0.09600
H342        H  0.45219073  0.39629303  0.29997648     0.07130
H343        H  0.48775614  0.45166249  0.35649584     0.06980
C344        C  0.99528345  0.61624174  0.40113055     0.04020
C345        C  0.99068554  0.60506259  0.23168300    -0.12130
C346        C  0.00097235  0.58410419  0.23209786     0.01520
C347        C  0.00983394  0.57403689  0.39941810    -0.10660
C348        C  0.00588724  0.58433207  0.36720377     0.04010
C349        C  0.00027005  0.60558313  0.36925164    -0.10080
H350        H  0.97942001  0.61278034  0.25550288     0.09600
H351        H  0.02108162  0.55824197  0.39931163     0.07130
H352        H  0.00105799  0.61408952  0.34593181     0.06980
C353        C  0.44690800  0.51005564  0.31717395    -0.19420
C354        C  0.99180088  0.51902441  0.29816816    -0.05980
C355        C  0.03355245  0.50654753  0.28104625     0.14880
C356        C  0.02888303  0.48542835  0.28321483    -0.19470
C357        C  0.98382769  0.47645132  0.30216585    -0.05990
C358        C  0.44221032  0.48896171  0.31935465     0.14870
C359        C  0.39141434  0.48026551  0.33893376    -0.22820
H360        H  0.41509301  0.51968263  0.33026717     0.16160
H361        H  0.06068526  0.47580836  0.27009368     0.16190
C362        C  0.08417339  0.51534306  0.26144567    -0.22770
H363        H  0.36091418  0.49228895  0.14832206     0.06400
H364        H  0.90671255  0.47210814  0.16192267     0.09630
H365        H  0.36673221  0.46976003  0.32183535     0.09630
H366        H  0.10904865  0.52573241  0.27865433     0.09610
H367        H  0.56851871  0.52370759  0.43871821     0.09610
H368        H  0.11446011  0.50337064  0.45169948     0.06390
C369        C  0.28024330  0.98905527  0.31810765    -0.19420
C370        C  0.23867627  0.97769892  0.29979059    -0.05980
C371        C  0.19415310  0.98789818  0.28188298     0.14880
C372        C  0.19310857  0.00909955  0.28236841    -0.19470
C373        C  0.23446637  0.02047448  0.30079570    -0.05990
C374        C  0.27927688  0.01027814  0.31852372     0.14870
C375        C  0.32806000  0.02111151  0.33694097    -0.22820
H376        H  0.31487327  0.98126622  0.33144368     0.16160
H377        H  0.15841546  0.01685838  0.26904506     0.16190
C378        C  0.14566015  0.97708319  0.26316624    -0.22770
H379        H  0.37043028  0.01551033  0.12662253     0.06400
H380        H  0.32561735  0.01802271  0.36503709     0.09630
H381        H  0.32741476  0.03768828  0.33334668     0.09630
H382        H  0.14621005  0.96049896  0.26665494     0.09610
H383        H  0.14854092  0.98021873  0.23509881     0.09610
H384        H  0.10309509  0.98270304  0.47321350     0.06390
C385        C  0.23661449  0.11650663  0.40422289     0.04020
C386        C  0.22946530  0.10582467  0.43530238    -0.12130
C387        C  0.21353697  0.08533810  0.43584741     0.01520
C388        C  0.20375264  0.07542782  0.60315538    -0.10660
C389        C  0.21367759  0.08527579  0.57093888     0.04110
C390        C  0.23066311  0.10570211  0.57257212    -0.10080
H391        H  0.23918830  0.11306511  0.45960565     0.09600
H392        H  0.18863274  0.05999712  0.60284577     0.07130
H393        H  0.24272523  0.11287812  0.54883709     0.06980
C394        C  0.24494063  0.95535132  0.49896654     0.04020
C395        C  0.25160551  0.94490936  0.46726721    -0.12130
C396        C  0.26048260  0.92381557  0.46549737     0.01520
C397        C  0.26548212  0.91371539  0.49794888    -0.10660
C398        C  0.25661078  0.92391687  0.53067992     0.04010
C399        C  0.24609530  0.94485268  0.53007924    -0.10080
H400        H  0.24832975  0.95366533  0.44411078     0.09600
H401        H  0.27738113  0.89796924  0.49802158     0.07130
H402        H  0.23769957  0.95333819  0.55375294     0.06980
C403        C  0.22738616  0.04280929  0.50190788     0.04020
C404        C  0.22167498  0.05316664  0.53379144    -0.12130
C405        C  0.21221059  0.07418631  0.53566855     0.01520
C406        C  0.20569220  0.08443171  0.50345368    -0.10660
C407        C  0.21271893  0.07427848  0.47046263     0.04010
C408        C  0.22375613  0.05336340  0.47083336    -0.10080
H409        H  0.22629574  0.04457695  0.55712061     0.09600
H410        H  0.19463019  0.10031441  0.50413335     0.07130
H411        H  0.23104793  0.04499880  0.44688781     0.06980
C412        C  0.24961414  0.88080650  0.59630355     0.04020
C413        C  0.25466307  0.89144984  0.42814000    -0.12130
C414        C  0.26073235  0.91266806  0.43010540     0.01520
C415        C  0.26500531  0.92295191  0.59787032    -0.10660
C416        C  0.25627974  0.91289608  0.56524714     0.04010
C417        C  0.24578464  0.89199131  0.56573186    -0.10080
H418        H  0.25477140  0.88298510  0.45152196     0.09600
H419        H  0.27617282  0.93873537  0.59795528     0.07130
H420        H  0.23460770  0.88436145  0.54193154     0.06980
C421        C  0.25605272  0.85810296  0.59469432     0.04020
C422        C  0.25104588  0.84604640  0.42454701    -0.12130
C423        C  0.27428474  0.82628658  0.42380836     0.01520
C424        C  0.30768582  0.82001466  0.59576406    -0.10660
C425        C  0.29283280  0.82792995  0.56448868     0.04010
C426        C  0.27062665  0.84768330  0.56339404    -0.10080
H427        H  0.22848121  0.85150314  0.44751960     0.09600
H428        H  0.32863668  0.80526463  0.59591584     0.07130
H429        H  0.26431920  0.85415226  0.53829590     0.06980
O430        O  0.22421693  0.81200661  0.52801605    -0.56930
C431        C  0.13289875  0.75863834  0.49927081     0.75700
O432        O  0.27824010  0.79280575  0.44459577    -0.58080
C433        C  0.27556168  0.81244078  0.53965836     0.75670
C434        C  0.33184061  0.75165966  0.49752785     0.78070
Cd435      Cd  0.23992675  0.78076231  0.49603617     1.37470
O436        O  0.15781055  0.76486970  0.52656845    -0.56920
O437        O  0.30742533  0.75818561  0.52508169    -0.55730
C438        C  0.25702449  0.81054105  0.44770028     0.78030
O439        O  0.31170758  0.75779301  0.46908983    -0.58100
O440        O  0.15562055  0.76357926  0.47076274    -0.56560
O441        O  0.30799983  0.79727291  0.53333181    -0.56550
O442        O  0.21911876  0.81359235  0.47098991    -0.55720
C443        C  0.50302077  0.63888225  0.60275398     0.04020
C444        C  0.51795387  0.64915958  0.43397929    -0.12130
C445        C  0.54137431  0.66869962  0.43275126     0.01520
C446        C  0.55724474  0.67640042  0.60137611    -0.10660
C447        C  0.52376919  0.67045651  0.57348600     0.04010
C448        C  0.49914598  0.65097105  0.57291407    -0.10080
H449        H  0.51093337  0.64275083  0.45910302     0.09600
H450        H  0.57912786  0.69092448  0.60105553     0.07130
H451        H  0.47637519  0.64576345  0.55007483     0.06980
O452        O  0.40889551  0.73233000  0.47137703    -0.56930
C453        C  0.02482110  0.68438186  0.45768901     0.75700
O454        O  0.06106295  0.73931815  0.52882216    -0.58080
C455        C  0.38314368  0.73848394  0.49868775     0.75670
C456        C  0.50736460  0.68637755  0.54979135     0.78070
Cd457      Cd  0.49041396  0.71631298  0.50173312     1.37470
O458        O  0.47415163  0.68484634  0.47067779    -0.56920
O459        O  0.46840785  0.68380622  0.52732072    -0.55730
C460        C  0.08195338  0.74539548  0.50040440     0.78030
O461        O  0.03021614  0.70381817  0.55234684    -0.58100
O462        O  0.05704208  0.69962986  0.46291780    -0.56560
O463        O  0.40532072  0.73352693  0.52719178    -0.56550
O464        O  0.05863386  0.73875854  0.47282226    -0.55720
O465        O  0.48082512  0.31179904  0.52910841    -0.56930
C466        C  0.39193436  0.25809893  0.50081891     0.75700
O467        O  0.04507768  0.29346732  0.44934673    -0.58080
C468        C  0.02972706  0.31162839  0.54391338     0.75670
C469        C  0.09100435  0.25107607  0.49986887     0.78070
Cd470      Cd  0.49918035  0.28021719  0.49853906     1.37460
O471        O  0.41659995  0.26424156  0.52822486    -0.56920
O472        O  0.06718743  0.25778402  0.52748027    -0.55730
C473        C  0.52093329  0.31077624  0.45156741     0.78030
O474        O  0.07035303  0.25706885  0.47146122    -0.58100
O475        O  0.41494366  0.26312701  0.47241862    -0.56560
O476        O  0.06086154  0.29585535  0.54019497    -0.56550
O477        O  0.47960682  0.31293708  0.47299519    -0.55720
C478        C  0.00942746  0.35783488  0.59871063     0.04020
C479        C  0.01149533  0.34623326  0.42923073    -0.12130
C480        C  0.03748908  0.32689431  0.42812887     0.01520
C481        C  0.06784397  0.32081204  0.59882658    -0.10660
C482        C  0.04598644  0.32766818  0.56815717     0.04010
C483        C  0.01998398  0.34690684  0.56734060    -0.10080
H484        H  0.99011095  0.35124442  0.45283977     0.09600
H485        H  0.09091998  0.30645372  0.59870220     0.07130
H486        H  0.00458975  0.35208863  0.54275242     0.06980
O487        O  0.23195727  0.18441649  0.47251902    -0.56930
C488        C  0.14226785  0.23786528  0.50089443     0.75700
O489        O  0.29284644  0.20243975  0.55311145    -0.58080
C490        C  0.28177667  0.18399637  0.45841780     0.75670
C491        C  0.34101859  0.24483642  0.50185517     0.78070
Cd492      Cd  0.24973253  0.21568625  0.50337617     1.37460
O493        O  0.16766928  0.23168252  0.47350049    -0.56920
O494        O  0.31788058  0.23812844  0.47427068    -0.55730
C495        C  0.26853834  0.18523015  0.55090039     0.78030
O496        O  0.32003340  0.23879638  0.53027952    -0.58100
O497        O  0.16481514  0.23292144  0.52931213    -0.56560
O498        O  0.31397090  0.19935447  0.46267275    -0.56550
O499        O  0.22820815  0.18315825  0.52915642    -0.55720
C500        C  0.25637095  0.13831692  0.40454510     0.04020
C501        C  0.27105087  0.14884262  0.43556504    -0.12130
C502        C  0.29765111  0.16787470  0.43406947     0.01520
C503        C  0.31701541  0.17478049  0.40275311    -0.10660
C504        C  0.28424614  0.16907706  0.57443554     0.04010
C505        C  0.25686667  0.15003700  0.57410982    -0.10080
H506        H  0.25835408  0.14362531  0.46075359     0.09600
H507        H  0.34062853  0.18896540  0.40233375     0.07130
H508        H  0.23348567  0.14527828  0.55123737     0.06980
C509        C  0.49177275  0.37992150  0.59931756     0.04020
C510        C  0.48597046  0.39075511  0.43100973    -0.12130
C511        C  0.46996681  0.41133191  0.43278317     0.01520
C512        C  0.46057325  0.42124163  0.60060588    -0.10660
C513        C  0.47080736  0.41132393  0.56787499     0.04010
C514        C  0.48651428  0.39076813  0.56831149    -0.10080
H515        H  0.49720693  0.38343795  0.45464854     0.09600
H516        H  0.44547173  0.43670931  0.60091967     0.07130
H517        H  0.49756360  0.38356573  0.54407012     0.06980
C518        C  0.99577263  0.54143633  0.49836921     0.04020
C519        C  0.99359349  0.55201708  0.46736081    -0.12130
C520        C  0.00197916  0.57306074  0.46665787     0.01520
C521        C  0.01027100  0.58331005  0.49929634    -0.10660
C522        C  0.00628617  0.57318373  0.53178533     0.04010
C523        C  0.99975440  0.55200692  0.53003628    -0.10080
H524        H  0.98438890  0.54353481  0.44391317     0.09600
H525        H  0.02084217  0.59912423  0.49910160     0.07130
H526        H  0.99697198  0.54321710  0.55318304     0.06980
C527        C  0.47910382  0.45403104  0.50171540     0.04020
C528        C  0.47569537  0.44353036  0.46990213    -0.12130
C529        C  0.46820016  0.42243001  0.46810208     0.01520
C530        C  0.46257149  0.41218856  0.50041222    -0.10660
C531        C  0.46956421  0.42238080  0.53327680     0.04010
C532        C  0.47907021  0.44336673  0.53275469    -0.10080
H533        H  0.47985621  0.45214500  0.44655755     0.09600
H534        H  0.45226612  0.39628295  0.49997676     0.07130
H535        H  0.48776129  0.45166021  0.55648957     0.06980
C536        C  0.99527714  0.61624268  0.60112747     0.04020
C537        C  0.99068490  0.60506037  0.43168287    -0.12130
C538        C  0.00096833  0.58410168  0.43209805     0.01520
C539        C  0.00982308  0.57403759  0.59941814    -0.10660
C540        C  0.00587571  0.58433147  0.56720296     0.04010
C541        C  0.00026020  0.60558280  0.56924914    -0.10080
H542        H  0.97941867  0.61277854  0.45550230     0.09600
H543        H  0.02106873  0.55824248  0.59931256     0.07130
H544        H  0.00104575  0.61408821  0.54592837     0.06980
C545        C  0.44690479  0.51004917  0.51716905    -0.19420
C546        C  0.99179735  0.51902080  0.49816684    -0.05980
C547        C  0.03355277  0.50654589  0.48104358     0.14880
C548        C  0.02888929  0.48542622  0.48320857    -0.19470
C549        C  0.98383552  0.47644621  0.50215671    -0.05990
C550        C  0.44221194  0.48895462  0.51934524     0.14870
C551        C  0.39141396  0.48025575  0.53891903    -0.22820
H552        H  0.41508578  0.51967438  0.53026258     0.16160
H553        H  0.06069654  0.47580817  0.47008763     0.16190
C554        C  0.08417266  0.51534402  0.46144554    -0.22770
H555        H  0.36096822  0.49227867  0.34833403     0.06400
H556        H  0.90677989  0.47210131  0.36193390     0.09630
H557        H  0.36673937  0.46974990  0.52181733     0.09630
H558        H  0.10904380  0.52573344  0.47865620     0.09610
H559        H  0.56851055  0.52371447  0.63872865     0.09610
H560        H  0.11443798  0.50337402  0.65171184     0.06390
C561        C  0.28024541  0.98905431  0.51810624    -0.19420
C562        C  0.23867886  0.97769946  0.49978571    -0.05980
C563        C  0.19416112  0.98790107  0.48187699     0.14880
C564        C  0.19312188  0.00910279  0.48236476    -0.19470
C565        C  0.23447953  0.02047616  0.50079553    -0.05990
C566        C  0.27928424  0.01027741  0.51852476     0.14870
C567        C  0.32806746  0.02110839  0.53694593    -0.22820
H568        H  0.31487111  0.98126384  0.53144366     0.16160
H569        H  0.15843315  0.01686317  0.46904010     0.16190
C570        C  0.14566784  0.97708829  0.46315690    -0.22770
H571        H  0.37049000  0.01547919  0.32668116     0.06400
H572        H  0.32561924  0.01801862  0.56504157     0.09630
H573        H  0.32742802  0.03768530  0.53335339     0.09630
H574        H  0.14621290  0.96050391  0.46664384     0.09610
H575        H  0.14855309  0.98022478  0.43508997     0.09610
H576        H  0.10310377  0.98271319  0.67321855     0.06390
C577        C  0.23663995  0.11651300  0.60422405     0.04020
C578        C  0.22951661  0.10582870  0.63530262    -0.12130
C579        C  0.21358803  0.08534229  0.63584751     0.01520
C580        C  0.20373567  0.07543151  0.80314928    -0.10660
C581        C  0.21372142  0.08527696  0.77093716     0.04110
C582        C  0.23077549  0.10569607  0.77257527    -0.10080
H583        H  0.23926192  0.11306707  0.65960381     0.09600
H584        H  0.18857661  0.06000508  0.80283444     0.07130
H585        H  0.24287846  0.11286719  0.74884258     0.06980
C586        C  0.24494105  0.95535537  0.69896658     0.04020
C587        C  0.25160134  0.94491296  0.66726746    -0.12130
C588        C  0.26047421  0.92381903  0.66549832     0.01520
C589        C  0.26547381  0.91371925  0.69795027    -0.10660
C590        C  0.25660578  0.92392138  0.73068099     0.04010
C591        C  0.24609435  0.94485728  0.73007966    -0.10080
H592        H  0.24832675  0.95366881  0.64411085     0.09600
H593        H  0.27737077  0.89797295  0.69802376     0.07130
H594        H  0.23770192  0.95334337  0.75375316     0.06980
C595        C  0.22742180  0.04281277  0.70190724     0.04020
C596        C  0.22170817  0.05316953  0.73379077    -0.12130
C597        C  0.21225356  0.07418930  0.73566735     0.01520
C598        C  0.20574936  0.08443640  0.70345373    -0.10660
C599        C  0.21277161  0.07428295  0.67046255     0.04010
C600        C  0.22380000  0.05336733  0.67083290    -0.10080
H601        H  0.22632081  0.04457999  0.75712112     0.09600
H602        H  0.19470245  0.10032049  0.70413620     0.07130
H603        H  0.23109031  0.04500254  0.64688743     0.06980
C604        C  0.24960365  0.88081230  0.79630618     0.04020
C605        C  0.25465249  0.89145282  0.62814305    -0.12130
C606        C  0.26072122  0.91267103  0.63010684     0.01520
C607        C  0.26500391  0.92295734  0.79787127    -0.10660
C608        C  0.25627454  0.91290125  0.76524862     0.04010
C609        C  0.24577499  0.89199680  0.76573425    -0.10080
H610        H  0.25476168  0.88298861  0.65152554     0.09600
H611        H  0.27617374  0.93874064  0.79795605     0.07130
H612        H  0.23459544  0.88436689  0.74193443     0.06980
C613        C  0.25603994  0.85810876  0.79469755     0.04020
C614        C  0.25103978  0.84604970  0.62455477    -0.12130
C615        C  0.27428491  0.82629080  0.62381908     0.01520
C616        C  0.30768338  0.82002274  0.79576873    -0.10660
C617        C  0.29282257  0.82793589  0.76449302     0.04010
C618        C  0.27061201  0.84768863  0.76339739    -0.10080
H619        H  0.22847061  0.85150646  0.64752582     0.09600
H620        H  0.32864058  0.80527384  0.79592150     0.07130
H621        H  0.26429976  0.85415671  0.73829898     0.06980
O622        O  0.22420888  0.81201267  0.72801795    -0.56930
C623        C  0.13289099  0.75864100  0.69927634     0.75700
O624        O  0.27824181  0.79281012  0.64460701    -0.58080
C625        C  0.27555013  0.81244508  0.73966566     0.75670
C626        C  0.33183369  0.75166369  0.69753329     0.78070
Cd627      Cd  0.23991827  0.78076580  0.69604418     1.37470
O628        O  0.15780130  0.76487207  0.72657469    -0.56920
O629        O  0.30742005  0.75818933  0.72508788    -0.55730
C630        C  0.25702223  0.81054493  0.64770975     0.78030
O631        O  0.31169879  0.75779731  0.66909590    -0.58100
O632        O  0.15561363  0.76358270  0.67076892    -0.56560
O633        O  0.30798307  0.79727489  0.73334615    -0.56550
O634        O  0.21910998  0.81359530  0.67099600    -0.55720
C635        C  0.50299571  0.63888416  0.80275603     0.04020
C636        C  0.51793460  0.64916188  0.63397721    -0.12130
C637        C  0.54135961  0.66870134  0.63275080     0.01520
C638        C  0.55722522  0.67640125  0.80137777    -0.10660
C639        C  0.52375222  0.67045749  0.77348664     0.04010
C640        C  0.49912537  0.65097258  0.77291518    -0.10080
H641        H  0.51089772  0.64275513  0.65910083     0.09600
H642        H  0.57911249  0.69092451  0.80105663     0.07130
H643        H  0.47635633  0.64576521  0.75007526     0.06980
O644        O  0.40888681  0.73233427  0.67138002    -0.56930
C645        C  0.02480644  0.68438448  0.65768718     0.75700
O646        O  0.06105485  0.73931952  0.72882524    -0.58080
C647        C  0.38313649  0.73848776  0.69869153     0.75670
C648        C  0.50735282  0.68637866  0.74979084     0.78070
Cd649      Cd  0.49040488  0.71631541  0.70173367     1.37470
O650        O  0.47413787  0.68484881  0.67067784    -0.56920
O651        O  0.46839338  0.68380878  0.72732143    -0.55730
C652        C  0.08194608  0.74539776  0.70040828     0.78030
O653        O  0.03021029  0.70381827  0.75234484    -0.58100
O654        O  0.05702721  0.69963269  0.66291475    -0.56560
O655        O  0.40531437  0.73352984  0.72719484    -0.56550
O656        O  0.05862751  0.73876150  0.67282538    -0.55720
O657        O  0.48106578  0.31181983  0.72917862    -0.56930
C658        C  0.39210041  0.25811187  0.70090690     0.75700
O659        O  0.04517951  0.29347747  0.64939080    -0.58080
C660        C  0.02999741  0.31165831  0.74395101     0.75670
C661        C  0.09116455  0.25108693  0.69996110     0.78070
Cd662      Cd  0.49935563  0.28023350  0.69861599     1.37460
O663        O  0.41675108  0.26426664  0.72831065    -0.56920
O664        O  0.06733755  0.25779537  0.72756914    -0.55730
C665        C  0.52102524  0.31078503  0.65161191     0.78030
O666        O  0.07052934  0.25708188  0.67155038    -0.58100
O667        O  0.41512264  0.26313105  0.67250549    -0.56560
O668        O  0.06113259  0.29588594  0.74022867    -0.56550
O669        O  0.47973144  0.31294760  0.67306160    -0.55720
C670        C  0.00948642  0.35785627  0.79867994     0.04020
C671        C  0.01154073  0.34623904  0.62926117    -0.12130
C672        C  0.03752751  0.32689864  0.62815007     0.01520
C673        C  0.06795420  0.32084774  0.79889085    -0.10660
C674        C  0.04627391  0.32770535  0.76817838     0.04010
C675        C  0.02028456  0.34694503  0.76731986    -0.10080
H676        H  0.99021508  0.35125430  0.65288576     0.09600
H677        H  0.09103605  0.30649076  0.79880318     0.07130
H678        H  0.00507407  0.35213227  0.74269637     0.06980
O679        O  0.23204326  0.18441218  0.67264816    -0.56930
C680        C  0.14242422  0.23787400  0.70099247     0.75700
O681        O  0.29317387  0.20242565  0.75316146    -0.58080
C682        C  0.28179233  0.18400816  0.65846002     0.75670
C683        C  0.34118784  0.24484595  0.70194590     0.78070
Cd684      Cd  0.24989522  0.21569293  0.70347043     1.37460
O685        O  0.16783148  0.23169250  0.67360048    -0.56920
O686        O  0.31807072  0.23812685  0.67436272    -0.55730
C687        C  0.26882055  0.18522347  0.75096820     0.78030
O688        O  0.32018468  0.23881402  0.73037107    -0.58100
O689        O  0.16496504  0.23292762  0.72941109    -0.56560
O690        O  0.31396724  0.19937617  0.66266410    -0.56550
O691        O  0.22841676  0.18316863  0.72926798    -0.55720
C692        C  0.25637122  0.13832652  0.60454978     0.04020
C693        C  0.27100065  0.14885813  0.63557397    -0.12130
C694        C  0.29759806  0.16789161  0.63408347     0.01520
C695        C  0.31697702  0.17479861  0.60277047    -0.10660
C696        C  0.28454636  0.16905981  0.77448057     0.04010
C697        C  0.25715126  0.15002138  0.77412888    -0.10080
H698        H  0.25827848  0.14364118  0.66075793     0.09600
H699        H  0.34058134  0.18898520  0.60235211     0.07130
H700        H  0.23379188  0.14527171  0.75124337     0.06980
C701        C  0.49179023  0.37993668  0.79929237     0.04020
C702        C  0.48592418  0.39075940  0.63102164    -0.12130
C703        C  0.46992454  0.41133693  0.63278334     0.01520
C704        C  0.46055387  0.42125208  0.80060779    -0.10660
C705        C  0.47075054  0.41133712  0.76786947     0.04010
C706        C  0.48645668  0.39078202  0.76829315    -0.10080
H707        H  0.49713068  0.38344486  0.65466701     0.09600
H708        H  0.44544995  0.43671962  0.80093168     0.07130
H709        H  0.49743438  0.38357912  0.74404410     0.06980
C710        C  0.99574756  0.54144181  0.69836929     0.04020
C711        C  0.99357326  0.55202197  0.66736119    -0.12130
C712        C  0.00196798  0.57306470  0.66665794     0.01520
C713        C  0.01026308  0.58331404  0.69929648    -0.10660
C714        C  0.00627301  0.57318764  0.73178546     0.04010
C715        C  0.99973167  0.55201153  0.73003645    -0.10080
H716        H  0.98436594  0.54353971  0.64391388     0.09600
H717        H  0.02084044  0.59912785  0.69910230     0.07130
H718        H  0.99694186  0.54322189  0.75318327     0.06980
C719        C  0.47904270  0.45404095  0.70170722     0.04020
C720        C  0.47564175  0.44353910  0.66989456    -0.12130
C721        C  0.46813646  0.42243937  0.66809775     0.01520
C722        C  0.46248465  0.41220143  0.70040879    -0.10660
C723        C  0.46948429  0.42239424  0.73327266     0.04010
C724        C  0.47899916  0.44337893  0.73274845    -0.10080
H725        H  0.47981556  0.45215197  0.64654871     0.09600
H726        H  0.45215787  0.39629775  0.69997272     0.07130
H727        H  0.48769003  0.45167307  0.75648276     0.06980
C728        C  0.99525803  0.61624410  0.80112968     0.04020
C729        C  0.99067889  0.60506235  0.63168056    -0.12130
C730        C  0.00096017  0.58410393  0.63209722     0.01520
C731        C  0.00982635  0.57403968  0.79941746    -0.10660
C732        C  0.00586523  0.58433423  0.76720342     0.04010
C733        C  0.00023625  0.60558489  0.76925059    -0.10080
H734        H  0.97941482  0.61278073  0.65549999     0.09600
H735        H  0.02108069  0.55824520  0.79930944     0.07130
H736        H  0.00100597  0.61408986  0.74592921     0.06980
C737        C  0.44685821  0.51005825  0.71715899    -0.19420
C738        C  0.99176398  0.51902755  0.69816524    -0.05980
C739        C  0.03352123  0.50655174  0.68104608     0.14880
C740        C  0.02884736  0.48543258  0.68320747    -0.19470
C741        C  0.98378081  0.47645489  0.70214762    -0.05990
C742        C  0.44215441  0.48896426  0.71933123     0.14870
C743        C  0.39134315  0.48026708  0.73889533    -0.22820
H744        H  0.41503800  0.51968480  0.73024861     0.16160
H745        H  0.06065623  0.47581325  0.67009070     0.16190
C746        C  0.08415249  0.51534842  0.66145631    -0.22770
H747        H  0.36096177  0.49226746  0.54831769     0.06400
H748        H  0.90677589  0.47209145  0.56191996     0.09630
H749        H  0.36667215  0.46976337  0.72178793     0.09630
H750        H  0.10902189  0.52573537  0.67867223     0.09610
H751        H  0.56854365  0.52371017  0.83873156     0.09610
H752        H  0.11447434  0.50337075  0.85171563     0.06390
C753        C  0.28026171  0.98905624  0.71810414    -0.19420
C754        C  0.23868843  0.97770351  0.69978532    -0.05980
C755        C  0.19417282  0.98790703  0.68187809     0.14880
C756        C  0.19314227  0.00910865  0.68236552    -0.19470
C757        C  0.23450641  0.02047979  0.70079471    -0.05990
C758        C  0.27930867  0.01027922  0.71852274     0.14870
C759        C  0.32809657  0.02110813  0.73694305    -0.22820
H760        H  0.31488558  0.98126412  0.73144046     0.16160
H761        H  0.15845550  0.01687077  0.66904199     0.16190
C762        C  0.14567328  0.97709654  0.66316004    -0.22770
H763        H  0.37049745  0.01547493  0.52668795     0.06400
H764        H  0.32565007  0.01801773  0.76503850     0.09630
H765        H  0.32746086  0.03768520  0.73335199     0.09630
H766        H  0.14621279  0.96051213  0.66664675     0.09610
H767        H  0.14855636  0.98023302  0.63509303     0.09610
H768        H  0.10307973  0.98270710  0.87316462     0.06390
C769        C  0.23676728  0.11650293  0.80422964     0.04020
C770        C  0.22956957  0.10582127  0.83530617    -0.12130
C771        C  0.21356586  0.08534235  0.83584427     0.01520
C772        C  0.20351310  0.07542685  0.00315223    -0.10660
C773        C  0.21343981  0.08528109  0.97093963     0.04110
C774        C  0.23032964  0.10571667  0.97258561    -0.10080
H775        H  0.23931841  0.11305212  0.85961308     0.09600
H776        H  0.18848239  0.05998635  0.00283287     0.07130
H777        H  0.24243422  0.11290342  0.94886476     0.06980
C778        C  0.24491496  0.95535986  0.89896793     0.04020
C779        C  0.25159105  0.94491843  0.86726860    -0.12130
C780        C  0.26047290  0.92382495  0.86549899     0.01520
C781        C  0.26547676  0.91372507  0.89795023    -0.10660
C782        C  0.25659940  0.92392597  0.93068077     0.04010
C783        C  0.24607155  0.94486090  0.93008045    -0.10080
H784        H  0.24831791  0.95367412  0.84411172     0.09600
H785        H  0.27738332  0.89797954  0.89802329     0.07130
H786        H  0.23766797  0.95334511  0.95375462     0.06980
C787        C  0.22731317  0.04281624  0.90190976     0.04020
C788        C  0.22154870  0.05317308  0.93379072    -0.12130
C789        C  0.21206802  0.07419236  0.93566469     0.01520
C790        C  0.20560324  0.08443750  0.90344436    -0.10660
C791        C  0.21268593  0.07428370  0.87045804     0.04010
C792        C  0.22372507  0.05336959  0.87083344    -0.10080
H793        H  0.22613678  0.04458190  0.95711989     0.09600
H794        H  0.19453932  0.10032013  0.90411112     0.07130
H795        H  0.23105315  0.04500615  0.84689007     0.06980
C796        C  0.24960586  0.88081526  0.99630230     0.04020
C797        C  0.25464549  0.89145882  0.82814514    -0.12130
C798        C  0.26071948  0.91267683  0.83010797     0.01520
C799        C  0.26500027  0.92296056  0.99787001    -0.10660
C800        C  0.25627160  0.91290500  0.96524710     0.04010
C801        C  0.24577576  0.89200031  0.96573111    -0.10080
H802        H  0.25475195  0.88299495  0.85152808     0.09600
H803        H  0.27616755  0.93874422  0.99795550     0.07130
H804        H  0.23459765  0.88437065  0.94193063     0.06980
C805        C  0.25604556  0.85811198  0.99469212     0.04020
C806        C  0.25102984  0.84605587  0.82455863    -0.12130
C807        C  0.27427917  0.82629756  0.82382317     0.01520
C808        C  0.30769300  0.82002693  0.99576512    -0.10660
C809        C  0.29284185  0.82794088  0.96448849     0.04010
C810        C  0.27063041  0.84769347  0.96339254    -0.10080
H811        H  0.22846009  0.85151243  0.84752963     0.09600
H812        H  0.32865214  0.80527834  0.99591849     0.07130
H813        H  0.26432737  0.85416274  0.93829418     0.06980
O814        O  0.22421704  0.81201452  0.92802543    -0.56930
C815        C  0.13289711  0.75864470  0.89927820     0.75700
O816        O  0.27823494  0.79281572  0.84460592    -0.58080
C817        C  0.27556531  0.81245006  0.93966243     0.75670
C818        C  0.33183774  0.75166793  0.89753686     0.78070
Cd819      Cd  0.23992341  0.78077028  0.89604490     1.37470
O820        O  0.15780601  0.76487718  0.92657618    -0.56920
O821        O  0.30742214  0.75819369  0.92509077    -0.55730
C822        C  0.25701711  0.81055067  0.84771206     0.78030
O823        O  0.31170513  0.75780151  0.86909883    -0.58100
O824        O  0.15562054  0.76358538  0.87077040    -0.56560
O825        O  0.30800325  0.79728223  0.93333512    -0.56550
O826        O  0.21910786  0.81360033  0.87100028    -0.55720
C827        C  0.50304170  0.63888610  0.00275753     0.04020
C828        C  0.51790458  0.64916461  0.83397941    -0.12130
C829        C  0.54133396  0.66870349  0.83275244     0.01520
C830        C  0.55725670  0.67640632  0.00138181    -0.10660
C831        C  0.52378205  0.67046200  0.97349148     0.04010
C832        C  0.49916275  0.65097579  0.97291869    -0.10080
H833        H  0.51086107  0.64275892  0.85910319     0.09600
H834        H  0.57913406  0.69093149  0.00106272     0.07130
H835        H  0.47639207  0.64576814  0.95007944     0.06980
O836        O  0.40889158  0.73233820  0.87138554    -0.56930
C837        C  0.02478985  0.68438730  0.85769008     0.75700
O838        O  0.06105878  0.73932483  0.92882871    -0.58080
C839        C  0.38314026  0.73849190  0.89869648     0.75670
C840        C  0.50737468  0.68638313  0.94979724     0.78070
Cd841      Cd  0.49040873  0.71631929  0.90173969     1.37470
O842        O  0.47413057  0.68484999  0.87069284    -0.56920
O843        O  0.46840661  0.68381329  0.92733310    -0.55730
C844        C  0.08195251  0.74540119  0.90041118     0.78030
O845        O  0.03023435  0.70382263  0.95234729    -0.58100
O846        O  0.05700847  0.69963721  0.86290800    -0.56560
O847        O  0.40531701  0.73353411  0.92720021    -0.56550
O848        O  0.05863625  0.73876301  0.87282889    -0.55720
O849        O  0.48037425  0.31182345  0.92893022    -0.56930
C850        C  0.39141863  0.25811140  0.90067492     0.75700
O851        O  0.04480376  0.29346906  0.84930628    -0.58080
C852        C  0.02916735  0.31160055  0.94385487     0.75670
C853        C  0.09051568  0.25107325  0.89969923     0.78070
Cd854      Cd  0.49868976  0.28021251  0.89841784     1.37460
O855        O  0.41610992  0.26423554  0.92808328    -0.56920
O856        O  0.06671785  0.25777809  0.92731834    -0.55730
C857        C  0.52068652  0.31078242  0.85151800     0.78030
O858        O  0.06984064  0.25706664  0.87129831    -0.58100
O859        O  0.41441357  0.26315166  0.87227692    -0.56560
O860        O  0.06017276  0.29579042  0.94022102    -0.56550
O861        O  0.47926030  0.31294064  0.87287921    -0.55720
C862        C  0.00912488  0.35782099  0.99870441     0.04020
C863        C  0.01139078  0.34624775  0.82921743    -0.12130
C864        C  0.03739909  0.32691176  0.82814264     0.01520
C865        C  0.06744980  0.32078172  0.99874679    -0.10660
C866        C  0.04544721  0.32763402  0.96811002     0.04010
C867        C  0.01947677  0.34687942  0.96732441    -0.10080
H868        H  0.98987201  0.35125140  0.85278918     0.09600
H869        H  0.09051054  0.30642052  0.99859905     0.07130
H870        H  0.00395555  0.35206258  0.94276396     0.06980
O871        O  0.23162374  0.18448383  0.87218728    -0.56930
C872        C  0.14178267  0.23786518  0.90071695     0.75700
O873        O  0.29179380  0.20250403  0.95315110    -0.58080
C874        C  0.28170142  0.18399121  0.85841290     0.75670
C875        C  0.34049548  0.24485274  0.90170979     0.78070
Cd876      Cd  0.24923491  0.21569261  0.90324144     1.37460
O877        O  0.16719334  0.23168302  0.87332352    -0.56920
O878        O  0.31730583  0.23816511  0.87412680    -0.55730
C879        C  0.26767122  0.18526528  0.95084837     0.78030
O880        O  0.31956083  0.23879294  0.93013365    -0.58100
O881        O  0.16432093  0.23292337  0.92913714    -0.56560
O882        O  0.31402746  0.19929209  0.86290477    -0.56550
O883        O  0.22759484  0.18314400  0.92895270    -0.55720
C884        C  0.25658086  0.13830723  0.80456427     0.04020
C885        C  0.27117847  0.14883183  0.83559829    -0.12130
C886        C  0.29778700  0.16786302  0.83413225     0.01520
C887        C  0.31724603  0.17477124  0.80283723    -0.10660
C888        C  0.28337399  0.16912468  0.97440988     0.04010
C889        C  0.25600985  0.15008199  0.97414172    -0.10080
H890        H  0.25836939  0.14362214  0.86077109     0.09600
H891        H  0.34082016  0.18896518  0.80245149     0.07130
H892        H  0.23246109  0.14531809  0.95133148     0.06980
C893        C  0.49155978  0.37991626  0.99931915     0.04020
C894        C  0.48597225  0.39076952  0.83100315    -0.12130
C895        C  0.46994406  0.41134367  0.83277929     0.01520
C896        C  0.46050498  0.42124891  0.00060852    -0.10660
C897        C  0.47072499  0.41132919  0.96787636     0.04010
C898        C  0.48637574  0.39076822  0.96831416    -0.10080
H899        H  0.49723132  0.38345226  0.85463997     0.09600
H900        H  0.44544686  0.43672137  0.00092211     0.07130
H901        H  0.49745224  0.38356364  0.94407709     0.06980
C902        C  0.99578542  0.54144080  0.89837103     0.04020
C903        C  0.99360539  0.55202069  0.86736210    -0.12130
C904        C  0.00198656  0.57306444  0.86665819     0.01520
C905        C  0.01027968  0.58331445  0.89929628    -0.10660
C906        C  0.00630027  0.57318830  0.93178583     0.04010
C907        C  0.99976922  0.55201158  0.93003738    -0.10080
H908        H  0.98440160  0.54353771  0.84391504     0.09600
H909        H  0.02084650  0.59912894  0.89910083     0.07130
H910        H  0.99698730  0.54322171  0.95318408     0.06980
C911        C  0.47908253  0.45403758  0.90171803     0.04020
C912        C  0.47567479  0.44353878  0.86990329    -0.12130
C913        C  0.46817223  0.42243926  0.86810013     0.01520
C914        C  0.46253267  0.41219610  0.90040858    -0.10660
C915        C  0.46951630  0.42238676  0.93327650     0.04010
C916        C  0.47903449  0.44337224  0.93275653    -0.10080
H917        H  0.47984356  0.45215382  0.84655941     0.09600
H918        H  0.45222573  0.39629050  0.89996720     0.07130
H919        H  0.48772205  0.45166505  0.95649233     0.06980
C920        C  0.99529796  0.61624641  0.00113001     0.04020
C921        C  0.99067406  0.60506278  0.83168281    -0.12130
C922        C  0.00096545  0.58410463  0.83209785     0.01520
C923        C  0.00983886  0.57404106  0.99941850    -0.10660
C924        C  0.00589262  0.58433568  0.96720381     0.04010
C925        C  0.00028104  0.60558712  0.96925110    -0.10080
H926        H  0.97941275  0.61278027  0.85550334     0.09600
H927        H  0.02108326  0.55824587  0.99931257     0.07130
H928        H  0.00107023  0.61409304  0.94593091     0.06980
C929        C  0.44690186  0.51005668  0.91716795    -0.19420
C930        C  0.99180397  0.51902584  0.89817040    -0.05980
C931        C  0.03356092  0.50654922  0.88105278     0.14880
C932        C  0.02888940  0.48542989  0.88321836    -0.19470
C933        C  0.98382532  0.47645224  0.90216135    -0.05990
C934        C  0.44220026  0.48896251  0.91934432     0.14870
C935        C  0.39139172  0.48026610  0.93891171    -0.22820
H936        H  0.41508198  0.51968355  0.93025715     0.16160
H937        H  0.06069726  0.47581028  0.87010133     0.16190
C938        C  0.08418907  0.51534535  0.86145961    -0.22770
H939        H  0.36089185  0.49227994  0.74829057     0.06400
H940        H  0.90669013  0.47210078  0.76189767     0.09630
H941        H  0.36671877  0.46976159  0.92180676     0.09630
H942        H  0.10905962  0.52573340  0.87867301     0.09610
H943        H  0.56849754  0.52370705  0.03871925     0.09610
H944        H  0.11442068  0.50336493  0.05170009     0.06390
C945        C  0.28017746  0.98906478  0.91812755    -0.19420
C946        C  0.23863886  0.97770763  0.89978800    -0.05980
C947        C  0.19413532  0.98790700  0.88186306     0.14880
C948        C  0.19308684  0.00910856  0.88235112    -0.19470
C949        C  0.23441672  0.02048386  0.90080045    -0.05990
C950        C  0.27920352  0.01028773  0.91854909     0.14870
C951        C  0.32795499  0.02112158  0.93699554    -0.22820
H952        H  0.31479180  0.98127638  0.93147857     0.16160
H953        H  0.15841060  0.01686727  0.86901243     0.16190
C954        C  0.14566393  0.97709223  0.86312588    -0.22770
H955        H  0.37052413  0.01547353  0.72668326     0.06400
H956        H  0.32547100  0.01802982  0.96508952     0.09630
H957        H  0.32730982  0.03769874  0.93340615     0.09630
H958        H  0.14620502  0.96050824  0.86661729     0.09610
H959        H  0.14858004  0.98022674  0.83505923     0.09610
H960        H  0.10301596  0.98268585  0.07326268     0.06390
C961        C  0.73615635  0.11653384  0.00424053     0.04020
C962        C  0.72895243  0.10585466  0.03531612    -0.12130
C963        C  0.71321332  0.08535006  0.03585441     0.01520
C964        C  0.70361537  0.07542344  0.20316295    -0.10660
C965        C  0.71353072  0.08527184  0.17094673     0.04110
C966        C  0.73056381  0.10569335  0.17257677    -0.10080
H967        H  0.73845926  0.11312323  0.05963413     0.09600
H968        H  0.68847624  0.05999458  0.20285386     0.07130
H969        H  0.74261537  0.11286675  0.14883669     0.06980
C970        C  0.74492499  0.95536119  0.09896784     0.04020
C971        C  0.75158261  0.94491958  0.06726771    -0.12130
C972        C  0.76047466  0.92382672  0.06549709     0.01520
C973        C  0.76549144  0.91372669  0.09794727    -0.10660
C974        C  0.75662244  0.92392684  0.13067934     0.04010
C975        C  0.74610020  0.94486267  0.13008092    -0.10080
H976        H  0.74828622  0.95367464  0.04411112     0.09600
H977        H  0.77740097  0.89798140  0.09801781     0.07130
H978        H  0.73770979  0.95334750  0.15375599     0.06980
C979        C  0.72723764  0.04281633  0.10190421     0.04020
C980        C  0.72153862  0.05316876  0.13379222    -0.12130
C981        C  0.71202458  0.07418476  0.13567734     0.01520
C982        C  0.70543245  0.08443149  0.10347060    -0.10660
C983        C  0.71245195  0.07428558  0.07047041     0.04010
C984        C  0.72354956  0.05337297  0.07083394    -0.10080
H985        H  0.72620864  0.04457971  0.15711907     0.09600
H986        H  0.69431764  0.10030980  0.10417389     0.07130
H987        H  0.73084337  0.04501070  0.04688670     0.06980
C988        C  0.74963111  0.88081138  0.19629420     0.04020
C989        C  0.75464616  0.89146109  0.02814203    -0.12130
C990        C  0.76071816  0.91267920  0.03010592     0.01520
C991        C  0.76502227  0.92295683  0.19786920    -0.10660
C992        C  0.75629600  0.91290342  0.16524422     0.04010
C993        C  0.74580174  0.89199831  0.16572477    -0.10080
H994        H  0.75475336  0.88299655  0.05152445     0.09600
H995        H  0.77618751  0.93874054  0.19795682     0.07130
H996        H  0.73462426  0.88436967  0.14192330     0.06980
C997        C  0.75606658  0.85810792  0.19468128     0.04020
C998        C  0.75102541  0.84605781  0.02455113    -0.12130
C999        C  0.77427539  0.82629952  0.02381556     0.01520
C1000       C  0.80769929  0.82002002  0.19575071    -0.10660
C1001       C  0.79285564  0.82793669  0.16447485     0.04010
C1002       C  0.77065100  0.84769029  0.16338090    -0.10080
H1003       H  0.72844776  0.85151355  0.04752000     0.09600
H1004       H  0.82865108  0.80527012  0.19590226     0.07130
H1005       H  0.76435276  0.85416117  0.13828333     0.06980
O1006       O  0.72421916  0.81200986  0.12802099    -0.56930
C1007       C  0.63289296  0.75864423  0.09926931     0.75700
O1008       O  0.77821501  0.79281498  0.04458767    -0.58080
C1009       C  0.77557462  0.81244769  0.13964704     0.75670
C1010       C  0.83183398  0.75166583  0.09752477     0.78070
Cd1011     Cd  0.73992058  0.78076902  0.09603056     1.37470
O1012       O  0.65780591  0.76487671  0.12656597    -0.56920
O1013       O  0.80741669  0.75819217  0.12507774    -0.55730
C1014       C  0.75700687  0.81055108  0.04770014     0.78030
O1015       O  0.81170308  0.75779895  0.06908597    -0.58100
O1016       O  0.65561299  0.76358458  0.07076032    -0.56560
O1017       O  0.80801742  0.79728261  0.13330891    -0.56550
O1018       O  0.71910455  0.81360105  0.07099220    -0.55720
C1019       C  0.00302108  0.63888368  0.20275847     0.04020
C1020       C  0.01795702  0.64916496  0.03398116    -0.12130
C1021       C  0.04137779  0.66870506  0.03275616     0.01520
C1022       C  0.05723842  0.67640305  0.20137799    -0.10660
C1023       C  0.02375112  0.67046024  0.17349200     0.04010
C1024       C  0.99913081  0.65097413  0.17292092    -0.10080
H1025       H  0.01092456  0.64275705  0.05910431     0.09600
H1026       H  0.07911884  0.69092763  0.20105709     0.07130
H1027       H  0.97635284  0.64576673  0.15008409     0.06980
O1028       O  0.90889028  0.73233495  0.07137727    -0.56930
C1029       C  0.52482063  0.68438694  0.05769350     0.75700
O1030       O  0.56105964  0.73932373  0.12882336    -0.58080
C1031       C  0.88313672  0.73848985  0.09868682     0.75670
C1032       C  0.00734482  0.68638168  0.14979772     0.78070
Cd1033     Cd  0.99040624  0.71631784  0.10173710     1.37470
O1034       O  0.97414409  0.68485376  0.07067355    -0.56920
O1035       O  0.96839733  0.68380924  0.12732183    -0.55730
C1036       C  0.58194799  0.74540089  0.10040494     0.78030
O1037       O  0.53018874  0.70382339  0.15235691    -0.58100
O1038       O  0.55704706  0.69963252  0.06293103    -0.56560
O1039       O  0.90531159  0.73353343  0.12719178    -0.56550
O1040       O  0.55862643  0.73876340  0.07282384    -0.55720
O1041       O  0.98083889  0.31180262  0.12918798    -0.56930
C1042       C  0.89192811  0.25810232  0.10090215     0.75700
O1043       O  0.54498886  0.29346914  0.04937800    -0.58080
C1044       C  0.52979267  0.31164933  0.14393545     0.75670
C1045       C  0.59098872  0.25108455  0.09996131     0.78070
Cd1046     Cd  0.99917237  0.28022600  0.09860770     1.37460
O1047       O  0.91658133  0.26425601  0.12830571    -0.56920
O1048       O  0.56716108  0.25779375  0.12756875    -0.55730
C1049       C  0.02083483  0.31077659  0.05159995     0.78030
O1050       O  0.57034919  0.25707602  0.07154959    -0.58100
O1051       O  0.91494523  0.26312283  0.07249992    -0.56560
O1052       O  0.56095396  0.29588475  0.14019202    -0.56550
O1053       O  0.97955752  0.31294155  0.07306005    -0.55720
C1054       C  0.50941994  0.35785090  0.19869528     0.04020
C1055       C  0.51135807  0.34623187  0.02925962    -0.12130
C1056       C  0.53729550  0.32688427  0.02811743     0.01520
C1057       C  0.56792244  0.32084723  0.19883157    -0.10660
C1058       C  0.54608591  0.32769757  0.16815312     0.04010
C1059       C  0.52005718  0.34693126  0.16732685    -0.10080
H1060       H  0.49016095  0.35125565  0.05291875     0.09600
H1061       H  0.59102705  0.30649440  0.19871347     0.07130
H1062       H  0.50469692  0.35211115  0.14273044     0.06980
O1063       O  0.73184954  0.18440717  0.07265861    -0.56930
C1064       C  0.64225154  0.23787357  0.10099249     0.75700
O1065       O  0.79300359  0.20241376  0.15313205    -0.58080
C1066       C  0.78156899  0.18400537  0.05843409     0.75670
C1067       C  0.84101630  0.24483685  0.10194156     0.78070
Cd1068     Cd  0.74971557  0.21568914  0.10346151     1.37460
O1069       O  0.66765407  0.23169142  0.07359951    -0.56920
O1070       O  0.81789740  0.23811944  0.07435787    -0.55730
C1071       C  0.76862586  0.18521556  0.15094338     0.78030
O1072       O  0.82001394  0.23880442  0.13036674    -0.58100
O1073       O  0.66479783  0.23292860  0.12941028    -0.56560
O1074       O  0.81375408  0.19937220  0.06262223    -0.56550
O1075       O  0.72819837  0.18316794  0.12925712    -0.55720
C1076       C  0.75581920  0.13835299  0.00456149     0.04020
C1077       C  0.77077074  0.14885863  0.03555447    -0.12130
C1078       C  0.79728818  0.16790194  0.03401534     0.01520
C1079       C  0.81633534  0.17483842  0.00265612    -0.10660
C1080       C  0.78436131  0.16904851  0.17444476     0.04010
C1081       C  0.75692645  0.15001777  0.17411878    -0.10080
H1082       H  0.75841787  0.14360534  0.06078530     0.09600
H1083       H  0.83993243  0.18902553  0.00219295     0.07130
H1084       H  0.73350364  0.14527215  0.15125404     0.06980
C1085       C  0.99173010  0.37993290  0.19930733     0.04020
C1086       C  0.98573562  0.39075498  0.03102375    -0.12130
C1087       C  0.96981505  0.41133958  0.03278745     0.01520
C1088       C  0.96051567  0.42125123  0.20061531    -0.10660
C1089       C  0.97071297  0.41133530  0.16787855     0.04010
C1090       C  0.98641809  0.39077938  0.16830525    -0.10080
H1091       H  0.99689884  0.38343495  0.05466898     0.09600
H1092       H  0.94541909  0.43671965  0.20093735     0.07130
H1093       H  0.99742335  0.38357735  0.14405754     0.06980
C1094       C  0.49576359  0.54144226  0.09836867     0.04020
C1095       C  0.49358987  0.55202306  0.06736059    -0.12130
C1096       C  0.50198519  0.57306612  0.06665799     0.01520
C1097       C  0.51028106  0.58331494  0.09929674    -0.10660
C1098       C  0.50629224  0.57318823  0.13178529     0.04010
C1099       C  0.49975100  0.55201208  0.13003573    -0.10080
H1100       H  0.48437994  0.54354141  0.04391306     0.09600
H1101       H  0.52085752  0.59912878  0.09910295     0.07130
H1102       H  0.49696226  0.54322233  0.15318237     0.06980
C1103       C  0.97901713  0.45404058  0.10171705     0.04020
C1104       C  0.97558798  0.44353989  0.06990426    -0.12130
C1105       C  0.96806080  0.42244082  0.06810595     0.01520
C1106       C  0.96241961  0.41220256  0.10041931    -0.10660
C1107       C  0.96944753  0.42239353  0.13328200     0.04010
C1108       C  0.97898080  0.44337742  0.13275747    -0.10080
H1109       H  0.97975490  0.45215385  0.04655955     0.09600
H1110       H  0.95207724  0.39630019  0.09999065     0.07130
H1111       H  0.98768977  0.45166985  0.15649113     0.06980
C1112       C  0.49527970  0.61624413  0.20113055     0.04020
C1113       C  0.49069820  0.60506537  0.03168249    -0.12130
C1114       C  0.50097723  0.58410661  0.03209804     0.01520
C1115       C  0.50983647  0.57403952  0.19941751    -0.10660
C1116       C  0.50588375  0.58433461  0.16720352     0.04010
C1117       C  0.50026256  0.60558558  0.16925131    -0.10080
H1118       H  0.47943431  0.61278346  0.05550222     0.09600
H1119       H  0.52108698  0.55824475  0.19930997     0.07130
H1120       H  0.50104328  0.61409170  0.14593106     0.06980
C1121       C  0.94686910  0.51006108  0.11716926    -0.19420
C1122       C  0.49177026  0.51902763  0.09816654    -0.05980
C1123       C  0.53351555  0.50654853  0.08104365     0.14880
C1124       C  0.52883307  0.48542947  0.08320858    -0.19470
C1125       C  0.48377111  0.47645475  0.10215721    -0.05990
C1126       C  0.94215848  0.48896736  0.11934645     0.14870
C1127       C  0.89135477  0.48027398  0.13892239    -0.22820
H1128       H  0.91505836  0.51968973  0.13026264     0.16160
H1129       H  0.56063140  0.47580784  0.07008757     0.16190
C1130       C  0.58414392  0.51534146  0.06144629    -0.22770
H1131       H  0.86094098  0.49227922  0.94830695     0.06400
H1132       H  0.40674257  0.47210092  0.96191428     0.09630
H1133       H  0.86666918  0.46977072  0.12182184     0.09630
H1134       H  0.60902373  0.52572799  0.07865754     0.09610
H1135       H  0.06851941  0.52370616  0.23871776     0.09610
H1136       H  0.61445723  0.50336823  0.25170023     0.06390
C1137       C  0.78020681  0.98907184  0.11808524    -0.19420
C1138       C  0.73863492  0.97770845  0.09978470    -0.05980
C1139       C  0.69408363  0.98790108  0.08188986     0.14880
C1140       C  0.69301390  0.00910266  0.08237276    -0.19470
C1141       C  0.73437459  0.02048467  0.10078518    -0.05990
C1142       C  0.77921532  0.01029500  0.11849845     0.14870
C1143       C  0.82800322  0.02113638  0.13689724    -0.22820
H1144       H  0.81485830  0.98128823  0.13141113     0.16160
H1145       H  0.65829782  0.01685588  0.06906066     0.16190
C1146       C  0.64558609  0.97707839  0.06319038    -0.22770
H1147       H  0.87040183  0.01549224  0.92675673     0.06400
H1148       H  0.82559362  0.01804802  0.16499438     0.09630
H1149       H  0.82733177  0.03771299  0.13330180     0.09630
H1150       H  0.64616117  0.96049425  0.06667918     0.09610
H1151       H  0.64843511  0.98021396  0.03512197     0.09610
H1152       H  0.60308718  0.98269697  0.27322423     0.06390
C1153       C  0.73660582  0.11649931  0.20422895     0.04020
C1154       C  0.72947040  0.10581588  0.23530765    -0.12130
C1155       C  0.71349076  0.08533447  0.23585276     0.01520
C1156       C  0.70370973  0.07542327  0.40315484    -0.10660
C1157       C  0.71364391  0.08527093  0.37093906     0.04110
C1158       C  0.73064070  0.10569575  0.37257189    -0.10080
H1159       H  0.73924936  0.11304853  0.25960814     0.09600
H1160       H  0.68858903  0.05999262  0.40284409     0.07130
H1161       H  0.74271513  0.11287077  0.34883759     0.06980
C1162       C  0.74494566  0.95535166  0.29897033     0.04020
C1163       C  0.75161223  0.94491156  0.26726998    -0.12130
C1164       C  0.76049221  0.92381832  0.26549728     0.01520
C1165       C  0.76549374  0.91371657  0.29794747    -0.10660
C1166       C  0.75662220  0.92391663  0.33067989     0.04010
C1167       C  0.74610342  0.94485219  0.33008181    -0.10080
H1168       H  0.74833364  0.95366862  0.24411494     0.09600
H1169       H  0.77739374  0.89797046  0.29801824     0.07130
H1170       H  0.73770637  0.95333671  0.35375639     0.06980
C1171       C  0.72736403  0.04280664  0.30190809     0.04020
C1172       C  0.72165196  0.05316325  0.33379202    -0.12130
C1173       C  0.71217883  0.07418219  0.33566955     0.01520
C1174       C  0.70565631  0.08442793  0.30345574    -0.10660
C1175       C  0.71267904  0.07427462  0.27046540     0.04010
C1176       C  0.72372213  0.05336032  0.27083383    -0.10080
H1177       H  0.72627909  0.04457387  0.35712121     0.09600
H1178       H  0.69459682  0.10031101  0.30413419     0.07130
H1179       H  0.73100976  0.04499693  0.24688636     0.06980
C1180       C  0.74962418  0.88080440  0.39629953     0.04020
C1181       C  0.75467181  0.89145527  0.22813557    -0.12130
C1182       C  0.76074046  0.91267325  0.23010355     0.01520
C1183       C  0.76501820  0.92294968  0.39786979    -0.10660
C1184       C  0.75629217  0.91289479  0.36524590     0.04010
C1185       C  0.74579552  0.89199018  0.36572881    -0.10080
H1186       H  0.75478258  0.88298923  0.25151624     0.09600
H1187       H  0.77618695  0.93873307  0.39795606     0.07130
H1188       H  0.73461764  0.88436140  0.34192770     0.06980
C1189       C  0.75605946  0.85810072  0.39468789     0.04020
C1190       C  0.75104088  0.84605265  0.22453871    -0.12130
C1191       C  0.77428484  0.82629352  0.22380189     0.01520
C1192       C  0.80767972  0.82000985  0.39575129    -0.10660
C1193       C  0.79283083  0.82792799  0.36447748     0.04010
C1194       C  0.77062948  0.84768199  0.36338607    -0.10080
H1195       H  0.72846387  0.85150838  0.24750780     0.09600
H1196       H  0.82862474  0.80525876  0.39590024     0.07130
H1197       H  0.76432348  0.85415225  0.33828885     0.06980
O1198       O  0.72420927  0.81200506  0.32800885    -0.56930
C1199       C  0.63289194  0.75863976  0.29925933     0.75700
O1200       O  0.77822234  0.79280954  0.24457708    -0.58080
C1201       C  0.77555884  0.81244101  0.33964385     0.75670
C1202       C  0.83183403  0.75166163  0.29751686     0.78070
Cd1203     Cd  0.73991944  0.78076436  0.29601947     1.37470
O1204       O  0.65780566  0.76487268  0.32655529    -0.56920
O1205       O  0.80741592  0.75818872  0.32506898    -0.55730
C1206       C  0.75701524  0.81054583  0.24768777     0.78030
O1207       O  0.81170378  0.75779387  0.26907734    -0.58100
O1208       O  0.65561133  0.76357944  0.27074981    -0.56560
O1209       O  0.80800247  0.79727584  0.33330794    -0.56550
O1210       O  0.71911268  0.81359669  0.27097933    -0.55720
C1211       C  0.00302390  0.63888133  0.40275779     0.04020
C1212       C  0.01795081  0.64916126  0.23398048    -0.12130
C1213       C  0.04137258  0.66870101  0.23275374     0.01520
C1214       C  0.05724098  0.67640050  0.40137494    -0.10660
C1215       C  0.02375279  0.67045738  0.37348962     0.04010
C1216       C  0.99913242  0.65097132  0.37291973    -0.10080
H1217       H  0.01092982  0.64275231  0.25910397     0.09600
H1218       H  0.07912272  0.69092479  0.40105265     0.07130
H1219       H  0.97635354  0.64576352  0.35008344     0.06980
O1220       O  0.90889072  0.73232998  0.27137178    -0.56930
C1221       C  0.52481844  0.68438270  0.25769186     0.75700
O1222       O  0.56105922  0.73932077  0.32881621    -0.58080
C1223       C  0.88313678  0.73848579  0.29868060     0.75670
C1224       C  0.00734521  0.68637856  0.34979517     0.78070
Cd1225     Cd  0.99040581  0.71631398  0.30173348     1.37470
O1226       O  0.97414177  0.68485050  0.27067092    -0.56920
O1227       O  0.96839784  0.68380566  0.32731936    -0.55730
C1228       C  0.58194690  0.74539667  0.30039678     0.78030
O1229       O  0.53018866  0.70382056  0.35235410    -0.58100
O1230       O  0.55704747  0.69962756  0.26292958    -0.56560
O1231       O  0.90531115  0.73353038  0.32718626    -0.56550
O1232       O  0.55862464  0.73875816  0.27281661    -0.55720
O1233       O  0.98090899  0.31179989  0.32910462    -0.56930
C1234       C  0.89201598  0.25809600  0.30080296     0.75700
O1235       O  0.54513647  0.29348433  0.24933153    -0.58080
C1236       C  0.52982001  0.31163345  0.34389952     0.75670
C1237       C  0.59108934  0.25108017  0.29984633     0.78070
Cd1238     Cd  0.99926011  0.28022125  0.29852360     1.37460
O1239       O  0.91668003  0.26424006  0.32820875    -0.56920
O1240       O  0.56726943  0.25778600  0.32745832    -0.55730
C1241       C  0.02097901  0.31079084  0.25156354     0.78030
O1242       O  0.57044212  0.25707623  0.27143952    -0.58100
O1243       O  0.91502410  0.26312567  0.27240308    -0.56560
O1244       O  0.56096225  0.29586270  0.34017453    -0.56550
O1245       O  0.97965214  0.31294299  0.27299334    -0.55720
C1246       C  0.50944865  0.35783479  0.39868602     0.04020
C1247       C  0.51149356  0.34625007  0.22924050    -0.12130
C1248       C  0.53752197  0.32691647  0.22813557     0.01520
C1249       C  0.56787499  0.32081474  0.39882582    -0.10660
C1250       C  0.54607629  0.32767384  0.36814396     0.04010
C1251       C  0.52008066  0.34691357  0.36731713    -0.10080
H1252       H  0.49010171  0.35125623  0.25285020     0.09600
H1253       H  0.59095136  0.30645653  0.39871058     0.07130
H1254       H  0.50475149  0.35209960  0.34271788     0.06980
O1255       O  0.73201201  0.18441894  0.27248082    -0.56930
C1256       C  0.64234970  0.23786715  0.30087187     0.75700
O1257       O  0.79285624  0.20243269  0.35311601    -0.58080
C1258       C  0.78186263  0.18398099  0.25841916     0.75670
C1259       C  0.84110200  0.24483115  0.30183903     0.78070
Cd1260     Cd  0.74980547  0.21568046  0.30336116     1.37460
O1261       O  0.66775379  0.23168400  0.27347876    -0.56920
O1262       O  0.81796172  0.23812329  0.27425497    -0.55730
C1263       C  0.76854976  0.18522305  0.35089487     0.78030
O1264       O  0.82011884  0.23878966  0.33026298    -0.58100
O1265       O  0.66489009  0.23292078  0.32929017    -0.56560
O1266       O  0.81409127  0.19932798  0.26269944    -0.56550
O1267       O  0.72823909  0.18315264  0.32913791    -0.55720
C1268       C  0.75641820  0.13830376  0.20455399     0.04020
C1269       C  0.77110493  0.14882645  0.23557643    -0.12130
C1270       C  0.79774533  0.16785260  0.23408429     0.01520
C1271       C  0.81714431  0.17475157  0.20276985    -0.10660
C1272       C  0.78424699  0.16906694  0.37442802     0.04010
C1273       C  0.75684591  0.15003014  0.37410757    -0.10080
H1274       H  0.75836889  0.14361504  0.26076076     0.09600
H1275       H  0.84077454  0.18893319  0.20235318     0.07130
H1276       H  0.73343722  0.14527508  0.35124284     0.06980
C1277       C  0.99178642  0.37992021  0.39930054     0.04020
C1278       C  0.98591022  0.39076760  0.23101503    -0.12130
C1279       C  0.96989903  0.41134327  0.23278734     0.01520
C1280       C  0.96058859  0.42124015  0.40061129    -0.10660
C1281       C  0.97079087  0.41132538  0.36787444     0.04010
C1282       C  0.98648729  0.39076846  0.36829952    -0.10080
H1283       H  0.99715472  0.38345164  0.25465364     0.09600
H1284       H  0.94548952  0.43670814  0.40093319     0.07130
H1285       H  0.99749109  0.38356624  0.34405189     0.06980
C1286       C  0.49578364  0.54143929  0.29836868     0.04020
C1287       C  0.49360347  0.55201982  0.26736035    -0.12130
C1288       C  0.50198793  0.57306346  0.26665761     0.01520
C1289       C  0.51028048  0.58331275  0.29929632    -0.10660
C1290       C  0.50629916  0.57318585  0.33178512     0.04010
C1291       C  0.49976860  0.55200937  0.33003544    -0.10080
H1292       H  0.48439724  0.54353757  0.24391292     0.09600
H1293       H  0.52084848  0.59912720  0.29910192     0.07130
H1294       H  0.49698724  0.54321917  0.35318177     0.06980
C1295       C  0.97908135  0.45403711  0.30172286     0.04020
C1296       C  0.97565269  0.44353910  0.26990827    -0.12130
C1297       C  0.96814059  0.42244009  0.26810625     0.01520
C1298       C  0.96251246  0.41219725  0.30041476    -0.10660
C1299       C  0.96952928  0.42238603  0.33328016     0.04010
C1300       C  0.97905061  0.44337115  0.33276072    -0.10080
H1301       H  0.97981151  0.45215430  0.24656400     0.09600
H1302       H  0.95219054  0.39629298  0.29997653     0.07130
H1303       H  0.98775569  0.45166246  0.35649590     0.06980
C1304       C  0.49528429  0.61624178  0.40113048     0.04020
C1305       C  0.49068558  0.60506260  0.23168292    -0.12130
C1306       C  0.50097263  0.58410421  0.23209778     0.01520
C1307       C  0.50983455  0.57403693  0.39941803    -0.10660
C1308       C  0.50588793  0.58433211  0.36720370     0.04010
C1309       C  0.50027089  0.60558317  0.36925157    -0.10080
H1310       H  0.47942006  0.61278033  0.25550282     0.09600
H1311       H  0.52108213  0.55824200  0.39931156     0.07130
H1312       H  0.50105896  0.61408957  0.34593175     0.06980
C1313       C  0.94690740  0.51005559  0.31717398    -0.19420
C1314       C  0.49180146  0.51902444  0.29816810    -0.05980
C1315       C  0.53355296  0.50654755  0.28104615     0.14880
C1316       C  0.52888348  0.48542837  0.28321474    -0.19470
C1317       C  0.48382816  0.47645136  0.30216579    -0.05990
C1318       C  0.94220978  0.48896167  0.31935468     0.14870
C1319       C  0.89141378  0.48026544  0.33893375    -0.22820
H1320       H  0.91509235  0.51968258  0.33026717     0.16160
H1321       H  0.56068566  0.47580837  0.27009355     0.16190
C1322       C  0.58417387  0.51534307  0.26144553    -0.22770
H1323       H  0.86091401  0.49228892  0.14832219     0.06400
H1324       H  0.40671269  0.47210816  0.16192256     0.09630
H1325       H  0.86673171  0.46975996  0.32183532     0.09630
H1326       H  0.60904920  0.52573240  0.27865417     0.09610
H1327       H  0.06851818  0.52370757  0.43871824     0.09610
H1328       H  0.61446059  0.50337066  0.45169947     0.06390
C1329       C  0.78024325  0.98905528  0.31810769    -0.19420
C1330       C  0.73867622  0.97769893  0.29979063    -0.05980
C1331       C  0.69415303  0.98789819  0.28188304     0.14880
C1332       C  0.69310848  0.00909956  0.28236847    -0.19470
C1333       C  0.73446628  0.02047448  0.30079575    -0.05990
C1334       C  0.77927681  0.01027815  0.31852377     0.14870
C1335       C  0.82805993  0.02111153  0.33694101    -0.22820
H1336       H  0.81487323  0.98126624  0.33144371     0.16160
H1337       H  0.65841536  0.01685839  0.26904512     0.16190
C1338       C  0.64566008  0.97708320  0.26316630    -0.22770
H1339       H  0.87043007  0.01551035  0.12662259     0.06400
H1340       H  0.82561730  0.01802272  0.36503713     0.09630
H1341       H  0.82741468  0.03768829  0.33334673     0.09630
H1342       H  0.64620999  0.96049896  0.26665499     0.09610
H1343       H  0.64854084  0.98021874  0.23509887     0.09610
H1344       H  0.60309495  0.98270304  0.47321353     0.06390
C1345       C  0.73661441  0.11650663  0.40422296     0.04020
C1346       C  0.72946518  0.10582467  0.43530244    -0.12130
C1347       C  0.71353683  0.08533811  0.43584747     0.01520
C1348       C  0.70375245  0.07542782  0.60315544    -0.10660
C1349       C  0.71367740  0.08527580  0.57093894     0.04110
C1350       C  0.73066292  0.10570212  0.57257218    -0.10080
H1351       H  0.73918816  0.11306511  0.45960571     0.09600
H1352       H  0.68863256  0.05999713  0.60284583     0.07130
H1353       H  0.74272504  0.11287813  0.54883715     0.06980
C1354       C  0.74494049  0.95535133  0.49896658     0.04020
C1355       C  0.75160539  0.94490937  0.46726725    -0.12130
C1356       C  0.76048251  0.92381559  0.46549741     0.01520
C1357       C  0.76548205  0.91371540  0.49794892    -0.10660
C1358       C  0.75661068  0.92391688  0.53067996     0.04010
C1359       C  0.74609517  0.94485270  0.53007928    -0.10080
H1360       H  0.74832962  0.95366534  0.44411082     0.09600
H1361       H  0.77738108  0.89796926  0.49802162     0.07130
H1362       H  0.73769943  0.95333820  0.55375298     0.06980
C1363       C  0.72738597  0.04280930  0.50190794     0.04020
C1364       C  0.72167479  0.05316665  0.53379150    -0.12130
C1365       C  0.71221041  0.07418632  0.53566861     0.01520
C1366       C  0.70569203  0.08443172  0.50345374    -0.10660
C1367       C  0.71271877  0.07427849  0.47046269     0.04010
C1368       C  0.72375596  0.05336341  0.47083342    -0.10080
H1369       H  0.72629554  0.04457696  0.55712067     0.09600
H1370       H  0.69463002  0.10031442  0.50413341     0.07130
H1371       H  0.73104777  0.04499881  0.44688787     0.06980
C1372       C  0.74961413  0.88080652  0.59630359     0.04020
C1373       C  0.75466303  0.89144985  0.42814005    -0.12130
C1374       C  0.76073229  0.91266807  0.43010544     0.01520
C1375       C  0.76500523  0.92295193  0.59787036    -0.10660
C1376       C  0.75627966  0.91289609  0.56524718     0.04010
C1377       C  0.74578460  0.89199132  0.56573190    -0.10080
H1378       H  0.75477136  0.88298511  0.45152201     0.09600
H1379       H  0.77617271  0.93873539  0.59795532     0.07130
H1380       H  0.73460766  0.88436146  0.54193159     0.06980
C1381       C  0.75605277  0.85810298  0.59469437     0.04020
C1382       C  0.75104591  0.84604641  0.42454706    -0.12130
C1383       C  0.77428478  0.82628659  0.42380841     0.01520
C1384       C  0.80768594  0.82001469  0.59576411    -0.10660
C1385       C  0.79283291  0.82792998  0.56448872     0.04010
C1386       C  0.77062674  0.84768333  0.56339409    -0.10080
H1387       H  0.72848125  0.85150315  0.44751965     0.09600
H1388       H  0.82863681  0.80526467  0.59591589     0.07130
H1389       H  0.76431929  0.85415229  0.53829595     0.06980
O1390       O  0.72421700  0.81200662  0.52801615    -0.56930
C1391       C  0.63289878  0.75863838  0.49927084     0.75700
O1392       O  0.77824018  0.79280577  0.44459585    -0.58080
C1393       C  0.77556177  0.81244081  0.53965842     0.75670
C1394       C  0.83184061  0.75165967  0.49752796     0.78070
Cd1395     Cd  0.73992680  0.78076233  0.49603625     1.37470
O1396       O  0.65781057  0.76486973  0.52656849    -0.56920
O1397       O  0.80742533  0.75818562  0.52508180    -0.55730
C1398       C  0.75702455  0.81054107  0.44770035     0.78030
O1399       O  0.81170760  0.75779302  0.46908993    -0.58100
O1400       O  0.65562061  0.76357931  0.47076278    -0.56560
O1401       O  0.80799995  0.79727295  0.53333184    -0.56550
O1402       O  0.71911882  0.81359237  0.47098997    -0.55720
C1403       C  0.00302074  0.63888222  0.60275405     0.04020
C1404       C  0.01795309  0.64915953  0.43397935    -0.12130
C1405       C  0.04137366  0.66869955  0.43275130     0.01520
C1406       C  0.05724483  0.67640037  0.60137619    -0.10660
C1407       C  0.02376924  0.67045648  0.57348608     0.04010
C1408       C  0.99914597  0.65097102  0.57291415    -0.10080
H1409       H  0.01093260  0.64275078  0.45910308     0.09600
H1410       H  0.07912794  0.69092443  0.60105561     0.07130
H1411       H  0.97637513  0.64576343  0.55007492     0.06980
O1412       O  0.90889547  0.73232999  0.47137714    -0.56930
C1413       C  0.52482154  0.68438192  0.45768894     0.75700
O1414       O  0.56106297  0.73931817  0.52882213    -0.58080
C1415       C  0.88314366  0.73848394  0.49868787     0.75670
C1416       C  0.00736465  0.68637752  0.54979144     0.78070
Cd1417     Cd  0.99041389  0.71631295  0.50173322     1.37470
O1418       O  0.97415127  0.68484630  0.47067798    -0.56920
O1419       O  0.96840774  0.68380623  0.52732091    -0.55730
C1420       C  0.58195340  0.74539553  0.50040439     0.78030
O1421       O  0.53021595  0.70381821  0.55234681    -0.58100
O1422       O  0.55704245  0.69962993  0.46291782    -0.56560
O1423       O  0.90532070  0.73352693  0.52719190    -0.56550
O1424       O  0.55863389  0.73875862  0.47282224    -0.55720
O1425       O  0.98082510  0.31179901  0.52910846    -0.56930
C1426       C  0.89193435  0.25809890  0.50081896     0.75700
O1427       O  0.54507770  0.29346734  0.44934667    -0.58080
C1428       C  0.52972709  0.31162842  0.54391332     0.75670
C1429       C  0.59100433  0.25107609  0.49986883     0.78070
Cd1430     Cd  0.99918034  0.28021716  0.49853912     1.37460
O1431       O  0.91659995  0.26424153  0.52822491    -0.56920
O1432       O  0.56718740  0.25778405  0.52748023    -0.55730
C1433       C  0.02093325  0.31077621  0.45156747     0.78030
O1434       O  0.57035303  0.25706887  0.47146118    -0.58100
O1435       O  0.91494365  0.26312698  0.47241867    -0.56560
O1436       O  0.56086157  0.29585538  0.54019490    -0.56550
O1437       O  0.97960678  0.31293705  0.47299525    -0.55720
C1438       C  0.50942756  0.35783492  0.59871058     0.04020
C1439       C  0.51149544  0.34623329  0.42923068    -0.12130
C1440       C  0.53748915  0.32689433  0.42812882     0.01520
C1441       C  0.56784401  0.32081207  0.59882652    -0.10660
C1442       C  0.54598649  0.32766821  0.56815711     0.04010
C1443       C  0.51998405  0.34690687  0.56734055    -0.10080
H1444       H  0.49011106  0.35124445  0.45283972     0.09600
H1445       H  0.59092000  0.30645374  0.59870214     0.07130
H1446       H  0.50458982  0.35208866  0.54275236     0.06980
O1447       O  0.73195722  0.18441650  0.47251902    -0.56930
C1448       C  0.64226781  0.23786530  0.50089441     0.75700
O1449       O  0.79284620  0.20243975  0.55311152    -0.58080
C1450       C  0.78177666  0.18399636  0.45841785     0.75670
C1451       C  0.84101856  0.24483640  0.50185520     0.78070
Cd1452     Cd  0.74973246  0.21568625  0.50337619     1.37460
O1453       O  0.66766925  0.23168253  0.47350048    -0.56920
O1454       O  0.81788054  0.23812843  0.47427071    -0.55730
C1455       C  0.76853814  0.18523015  0.55090043     0.78030
O1456       O  0.82003336  0.23879636  0.53027955    -0.58100
O1457       O  0.66481507  0.23292146  0.52931212    -0.56560
O1458       O  0.81397092  0.19935445  0.46267283    -0.56550
O1459       O  0.72820801  0.18315825  0.52915642    -0.55720
C1460       C  0.75637091  0.13831692  0.40454516     0.04020
C1461       C  0.77105088  0.14884261  0.43556510    -0.12130
C1462       C  0.79765113  0.16787469  0.43406952     0.01520
C1463       C  0.81701539  0.17478048  0.40275316    -0.10660
C1464       C  0.78424591  0.16907707  0.57443560     0.04010
C1465       C  0.75686642  0.15003701  0.57410989    -0.10080
H1466       H  0.75835413  0.14362530  0.46075365     0.09600
H1467       H  0.84062852  0.18896540  0.40233380     0.07130
H1468       H  0.73348539  0.14527829  0.55123745     0.06980
C1469       C  0.99177260  0.37992147  0.59931762     0.04020
C1470       C  0.98597024  0.39075507  0.43100978    -0.12130
C1471       C  0.96996653  0.41133187  0.43278323     0.01520
C1472       C  0.96057300  0.42124159  0.60060594    -0.10660
C1473       C  0.97080712  0.41132388  0.56787505     0.04010
C1474       C  0.98651408  0.39076809  0.56831154    -0.10080
H1475       H  0.99720673  0.38343791  0.45464860     0.09600
H1476       H  0.94547144  0.43670926  0.60091974     0.07130
H1477       H  0.99756340  0.38356569  0.54407018     0.06980
C1478       C  0.49577311  0.54143637  0.49836914     0.04020
C1479       C  0.49359403  0.55201712  0.46736074    -0.12130
C1480       C  0.50197974  0.57306078  0.46665781     0.01520
C1481       C  0.51027155  0.58331008  0.49929629    -0.10660
C1482       C  0.50628663  0.57318377  0.53178527     0.04010
C1483       C  0.49975483  0.55200696  0.53003622    -0.10080
H1484       H  0.48438946  0.54353485  0.44391310     0.09600
H1485       H  0.52084277  0.59912426  0.49910156     0.07130
H1486       H  0.49697234  0.54321714  0.55318299     0.06980
C1487       C  0.97910345  0.45403100  0.50171546     0.04020
C1488       C  0.97569502  0.44353032  0.46990219    -0.12130
C1489       C  0.96819985  0.42242997  0.46810214     0.01520
C1490       C  0.96257122  0.41218851  0.50041228    -0.10660
C1491       C  0.96956393  0.42238076  0.53327686     0.04010
C1492       C  0.97906988  0.44336669  0.53275475    -0.10080
H1493       H  0.97985583  0.45214496  0.44655761     0.09600
H1494       H  0.95226589  0.39628290  0.49997682     0.07130
H1495       H  0.98776096  0.45166017  0.55648962     0.06980
C1496       C  0.49527731  0.61624271  0.60112740     0.04020
C1497       C  0.49068566  0.60506042  0.43168280    -0.12130
C1498       C  0.50096898  0.58410172  0.43209798     0.01520
C1499       C  0.50982356  0.57403762  0.59941807    -0.10660
C1500       C  0.50587610  0.58433150  0.56720290     0.04010
C1501       C  0.50026042  0.60558283  0.56924907    -0.10080
H1502       H  0.47941944  0.61277859  0.45550223     0.09600
H1503       H  0.52106931  0.55824253  0.59931249     0.07130
H1504       H  0.50104584  0.61408824  0.54592830     0.06980
C1505       C  0.94690437  0.51004913  0.51716913    -0.19420
C1506       C  0.49179780  0.51902084  0.49816677    -0.05980
C1507       C  0.53355322  0.50654593  0.48104353     0.14880
C1508       C  0.52888972  0.48542625  0.48320852    -0.19470
C1509       C  0.48383591  0.47644625  0.50215665    -0.05990
C1510       C  0.94221154  0.48895457  0.51934531     0.14870
C1511       C  0.89141359  0.48025569  0.53891912    -0.22820
H1512       H  0.91508536  0.51967433  0.53026268     0.16160
H1513       H  0.56069697  0.47580820  0.47008760     0.16190
C1514       C  0.58417314  0.51534404  0.46144551    -0.22770
H1515       H  0.86096762  0.49227860  0.34833401     0.06400
H1516       H  0.40678047  0.47210138  0.36193391     0.09630
H1517       H  0.86673899  0.46974985  0.52181742     0.09630
H1518       H  0.60904428  0.52573346  0.47865618     0.09610
H1519       H  0.06851016  0.52371446  0.63872873     0.09610
H1520       H  0.61443834  0.50337402  0.65171175     0.06390
C1521       C  0.78024524  0.98905432  0.51810628    -0.19420
C1522       C  0.73867871  0.97769947  0.49978575    -0.05980
C1523       C  0.69416097  0.98790107  0.48187703     0.14880
C1524       C  0.69312172  0.00910280  0.48236481    -0.19470
C1525       C  0.73447935  0.02047617  0.50079559    -0.05990
C1526       C  0.77928406  0.01027742  0.51852482     0.14870
C1527       C  0.82806727  0.02110840  0.53694599    -0.22820
H1528       H  0.81487094  0.98126385  0.53144371     0.16160
H1529       H  0.65843299  0.01686318  0.46904014     0.16190
C1530       C  0.64566770  0.97708830  0.46315693    -0.22770
H1531       H  0.87048993  0.01547921  0.32668119     0.06400
H1532       H  0.82561904  0.01801863  0.56504163     0.09630
H1533       H  0.82742783  0.03768532  0.53335346     0.09630
H1534       H  0.64621277  0.96050391  0.46664387     0.09610
H1535       H  0.64855296  0.98022479  0.43509000     0.09610
H1536       H  0.60310366  0.98271319  0.67321862     0.06390
C1537       C  0.73663975  0.11651301  0.60422411     0.04020
C1538       C  0.72951638  0.10582871  0.63530269    -0.12130
C1539       C  0.71358782  0.08534230  0.63584757     0.01520
C1540       C  0.70373552  0.07543151  0.80314935    -0.10660
C1541       C  0.71372127  0.08527697  0.77093722     0.04110
C1542       C  0.73077536  0.10569608  0.77257534    -0.10080
H1543       H  0.73926166  0.11306709  0.65960387     0.09600
H1544       H  0.68857645  0.06000509  0.80283450     0.07130
H1545       H  0.74287833  0.11286720  0.74884264     0.06980
C1546       C  0.74494096  0.95535539  0.69896662     0.04020
C1547       C  0.75160126  0.94491298  0.66726751    -0.12130
C1548       C  0.76047415  0.92381904  0.66549837     0.01520
C1549       C  0.76547376  0.91371927  0.69795031    -0.10660
C1550       C  0.75660572  0.92392140  0.73068104     0.04010
C1551       C  0.74609427  0.94485729  0.73007971    -0.10080
H1552       H  0.74832667  0.95366883  0.64411090     0.09600
H1553       H  0.77737074  0.89797297  0.69802380     0.07130
H1554       H  0.73770183  0.95334338  0.75375321     0.06980
C1555       C  0.72742165  0.04281278  0.70190730     0.04020
C1556       C  0.72170802  0.05316954  0.73379084    -0.12130
C1557       C  0.71225340  0.07418931  0.73566742     0.01520
C1558       C  0.70574918  0.08443641  0.70345380    -0.10660
C1559       C  0.71277142  0.07428296  0.67046261     0.04010
C1560       C  0.72379983  0.05336734  0.67083296    -0.10080
H1561       H  0.72632067  0.04458001  0.75712118     0.09600
H1562       H  0.69470226  0.10032050  0.70413627     0.07130
H1563       H  0.73109013  0.04500255  0.64688750     0.06980
C1564       C  0.74960366  0.88081231  0.79630622     0.04020
C1565       C  0.75465248  0.89145284  0.62814310    -0.12130
C1566       C  0.76072116  0.91267104  0.63010688     0.01520
C1567       C  0.76500385  0.92295735  0.79787132    -0.10660
C1568       C  0.75627450  0.91290127  0.76524867     0.04010
C1569       C  0.74577498  0.89199681  0.76573429    -0.10080
H1570       H  0.75476170  0.88298862  0.65152558     0.09600
H1571       H  0.77617365  0.93874066  0.79795610     0.07130
H1572       H  0.73459544  0.88436689  0.74193447     0.06980
C1573       C  0.75603998  0.85810878  0.79469759     0.04020
C1574       C  0.75103983  0.84604972  0.62455481    -0.12130
C1575       C  0.77428500  0.82629082  0.62381912     0.01520
C1576       C  0.80768342  0.82002275  0.79576878    -0.10660
C1577       C  0.79282262  0.82793590  0.76449307     0.04010
C1578       C  0.77061207  0.84768865  0.76339743    -0.10080
H1579       H  0.72847064  0.85150647  0.64752585     0.09600
H1580       H  0.82864062  0.80527385  0.79592155     0.07130
H1581       H  0.76429983  0.85415673  0.73829902     0.06980
O1582       O  0.72420896  0.81201269  0.72801797    -0.56930
C1583       C  0.63289104  0.75864103  0.69927635     0.75700
O1584       O  0.77824193  0.79281014  0.64460705    -0.58080
C1585       C  0.77555019  0.81244510  0.73966570     0.75670
C1586       C  0.83183372  0.75166370  0.69753329     0.78070
Cd1587     Cd  0.73991834  0.78076582  0.69604421     1.37470
O1588       O  0.65780135  0.76487210  0.72657471    -0.56920
O1589       O  0.80742010  0.75818934  0.72508789    -0.55730
C1590       C  0.75702232  0.81054495  0.64770978     0.78030
O1591       O  0.81169882  0.75779733  0.66909591    -0.58100
O1592       O  0.65561369  0.76358273  0.67076894    -0.56560
O1593       O  0.80798313  0.79727491  0.73334620    -0.56550
O1594       O  0.71911005  0.81359532  0.67099602    -0.55720
C1595       C  0.00299499  0.63888412  0.80275608     0.04020
C1596       C  0.01793466  0.64916183  0.63397728    -0.12130
C1597       C  0.04135972  0.66870128  0.63275087     0.01520
C1598       C  0.05722470  0.67640118  0.80137780    -0.10660
C1599       C  0.02375167  0.67045743  0.77348667     0.04010
C1600       C  0.99912472  0.65097254  0.77291522    -0.10080
H1601       H  0.01089779  0.64275508  0.65910090     0.09600
H1602       H  0.07911207  0.69092442  0.80105664     0.07130
H1603       H  0.97635568  0.64576518  0.75007529     0.06980
O1604       O  0.90888680  0.73233426  0.67138000    -0.56930
C1605       C  0.52480639  0.68438453  0.65768713     0.75700
O1606       O  0.56105486  0.73931957  0.72882525    -0.58080
C1607       C  0.88313649  0.73848775  0.69869152     0.75670
C1608       C  0.00735242  0.68637861  0.74979085     0.78070
Cd1609     Cd  0.99040482  0.71631538  0.70173366     1.37470
O1610       O  0.97413778  0.68484884  0.67067768    -0.56920
O1611       O  0.96839308  0.68380874  0.72732136    -0.55730
C1612       C  0.58194613  0.74539780  0.70040829     0.78030
O1613       O  0.53021066  0.70381833  0.75234479    -0.58100
O1614       O  0.55702701  0.69963280  0.66291454    -0.56560
O1615       O  0.90531436  0.73352983  0.72719483    -0.56550
O1616       O  0.55862758  0.73876153  0.67282539    -0.55720
O1617       O  0.98106576  0.31181981  0.72917865    -0.56930
C1618       C  0.89210040  0.25811184  0.70090696     0.75700
O1619       O  0.54517951  0.29347749  0.64939073    -0.58080
C1620       C  0.52999746  0.31165834  0.74395095     0.75670
C1621       C  0.59116453  0.25108695  0.69996109     0.78070
Cd1622     Cd  0.99935562  0.28023347  0.69861605     1.37460
O1623       O  0.91675108  0.26426661  0.72831071    -0.56920
O1624       O  0.56733751  0.25779540  0.72756911    -0.55730
C1625       C  0.02102522  0.31078500  0.65161197     0.78030
O1626       O  0.57052935  0.25708189  0.67155035    -0.58100
O1627       O  0.91512263  0.26313102  0.67250555    -0.56560
O1628       O  0.56113265  0.29588597  0.74022857    -0.56550
O1629       O  0.97973141  0.31294756  0.67306165    -0.55720
C1630       C  0.50948651  0.35785630  0.79867988     0.04020
C1631       C  0.51154081  0.34623907  0.62926111    -0.12130
C1632       C  0.53752756  0.32689866  0.62815001     0.01520
C1633       C  0.56795424  0.32084776  0.79889079    -0.10660
C1634       C  0.54627398  0.32770537  0.76817832     0.04010
C1635       C  0.52028465  0.34694506  0.76731979    -0.10080
H1636       H  0.49021517  0.35125434  0.65288570     0.09600
H1637       H  0.59103607  0.30649077  0.79880312     0.07130
H1638       H  0.50507419  0.35213231  0.74269630     0.06980
O1639       O  0.73204319  0.18441217  0.67264824    -0.56930
C1640       C  0.64242418  0.23787401  0.70099248     0.75700
O1641       O  0.79317376  0.20242565  0.75316153    -0.58080
C1642       C  0.78179225  0.18400815  0.65846007     0.75670
C1643       C  0.84118782  0.24484593  0.70194596     0.78070
Cd1644     Cd  0.74989515  0.21569293  0.70347048     1.37460
O1645       O  0.66783145  0.23169250  0.67360050    -0.56920
O1646       O  0.81807069  0.23812684  0.67436278    -0.55730
C1647       C  0.76882044  0.18522347  0.75096826     0.78030
O1648       O  0.82018464  0.23881401  0.73037113    -0.58100
O1649       O  0.66496497  0.23292764  0.72941110    -0.56560
O1650       O  0.81396715  0.19937617  0.66266414    -0.56550
O1651       O  0.72841666  0.18316864  0.72926803    -0.55720
C1652       C  0.75637103  0.13832653  0.60454984     0.04020
C1653       C  0.77100054  0.14885812  0.63557403    -0.12130
C1654       C  0.79759795  0.16789161  0.63408351     0.01520
C1655       C  0.81697684  0.17479861  0.60277051    -0.10660
C1656       C  0.78454625  0.16905981  0.77448063     0.04010
C1657       C  0.75715114  0.15002139  0.77412895    -0.10080
H1658       H  0.75827844  0.14364117  0.66075800     0.09600
H1659       H  0.84058117  0.18898520  0.60235213     0.07130
H1660       H  0.73379173  0.14527172  0.75124345     0.06980
C1661       C  0.99179010  0.37993664  0.79929244     0.04020
C1662       C  0.98592402  0.39075936  0.63102170    -0.12130
C1663       C  0.96992433  0.41133689  0.63278340     0.01520
C1664       C  0.96055364  0.42125204  0.80060785    -0.10660
C1665       C  0.97075035  0.41133708  0.76786953     0.04010
C1666       C  0.98645653  0.39078199  0.76829322    -0.10080
H1667       H  0.99713056  0.38344483  0.65466707     0.09600
H1668       H  0.94544969  0.43671958  0.80093173     0.07130
H1669       H  0.99743426  0.38357909  0.74404417     0.06980
C1670       C  0.49574803  0.54144184  0.69836922     0.04020
C1671       C  0.49357373  0.55202201  0.66736112    -0.12130
C1672       C  0.50196846  0.57306473  0.66665787     0.01520
C1673       C  0.51026359  0.58331408  0.69929641    -0.10660
C1674       C  0.50627357  0.57318768  0.73178539     0.04010
C1675       C  0.49973220  0.55201156  0.73003638    -0.10080
H1676       H  0.48436638  0.54353975  0.64391381     0.09600
H1677       H  0.52084093  0.59912789  0.69910221     0.07130
H1678       H  0.49694241  0.54322192  0.75318320     0.06980
C1679       C  0.97904243  0.45404091  0.70170728     0.04020
C1680       C  0.97564150  0.44353906  0.66989461    -0.12130
C1681       C  0.96813625  0.42243932  0.66809781     0.01520
C1682       C  0.96248446  0.41220139  0.70040885    -0.10660
C1683       C  0.96948408  0.42239420  0.73327272     0.04010
C1684       C  0.97899891  0.44337889  0.73274850    -0.10080
H1685       H  0.97981529  0.45215193  0.64654877     0.09600
H1686       H  0.95215771  0.39629770  0.69997278     0.07130
H1687       H  0.98768976  0.45167304  0.75648282     0.06980
C1688       C  0.49525875  0.61624413  0.80112962     0.04020
C1689       C  0.49067918  0.60506237  0.63168050    -0.12130
C1690       C  0.50096059  0.58410397  0.63209715     0.01520
C1691       C  0.50982693  0.57403971  0.79941739    -0.10660
C1692       C  0.50586585  0.58433426  0.76720336     0.04010
C1693       C  0.50023697  0.60558493  0.76925053    -0.10080
H1694       H  0.47941509  0.61278074  0.65549994     0.09600
H1695       H  0.52108121  0.55824522  0.79930937     0.07130
H1696       H  0.50100675  0.61408990  0.74592915     0.06980
C1697       C  0.94685779  0.51005820  0.71715904    -0.19420
C1698       C  0.49176440  0.51902758  0.69816518    -0.05980
C1699       C  0.53352161  0.50655177  0.68104601     0.14880
C1700       C  0.52884769  0.48543261  0.68320740    -0.19470
C1701       C  0.48378113  0.47645493  0.70214757    -0.05990
C1702       C  0.94215405  0.48896421  0.71933128     0.14870
C1703       C  0.89134280  0.48026701  0.73889537    -0.22820
H1704       H  0.91503755  0.51968474  0.73024866     0.16160
H1705       H  0.56065654  0.47581327  0.67009063     0.16190
C1706       C  0.58415288  0.51534843  0.66145622    -0.22770
H1707       H  0.86096139  0.49226740  0.54831779     0.06400
H1708       H  0.40677624  0.47209150  0.56191988     0.09630
H1709       H  0.86667183  0.46976330  0.72178797     0.09630
H1710       H  0.60902231  0.52573537  0.67867214     0.09610
H1711       H  0.06854309  0.52371017  0.83873158     0.09610
H1712       H  0.61447484  0.50337074  0.85171564     0.06390
C1713       C  0.78026160  0.98905626  0.71810418    -0.19420
C1714       C  0.73868832  0.97770353  0.69978537    -0.05980
C1715       C  0.69417270  0.98790704  0.68187815     0.14880
C1716       C  0.69314214  0.00910866  0.68236558    -0.19470
C1717       C  0.73450627  0.02047980  0.70079477    -0.05990
C1718       C  0.77930855  0.01027924  0.71852279     0.14870
C1719       C  0.82809645  0.02110815  0.73694309    -0.22820
H1720       H  0.81488548  0.98126414  0.73144050     0.16160
H1721       H  0.65845535  0.01687078  0.66904206     0.16190
C1722       C  0.64567316  0.97709655  0.66316011    -0.22770
H1723       H  0.87049726  0.01547495  0.52668802     0.06400
H1724       H  0.82564996  0.01801774  0.76503855     0.09630
H1725       H  0.82746072  0.03768522  0.73335204     0.09630
H1726       H  0.64621269  0.96051213  0.66664680     0.09610
H1727       H  0.64855623  0.98023303  0.63509310     0.09610
H1728       H  0.60307961  0.98270710  0.87316467     0.06390
C1729       C  0.73676716  0.11650293  0.80422970     0.04020
C1730       C  0.72956943  0.10582128  0.83530623    -0.12130
C1731       C  0.71356571  0.08534236  0.83584433     0.01520
C1732       C  0.70351290  0.07542686  0.00315229    -0.10660
C1733       C  0.71343964  0.08528109  0.97093969     0.04110
C1734       C  0.73032950  0.10571667  0.97258567    -0.10080
H1735       H  0.73931827  0.11305213  0.85961315     0.09600
H1736       H  0.68848219  0.05998636  0.00283292     0.07130
H1737       H  0.74243413  0.11290342  0.94886483     0.06980
C1738       C  0.74491485  0.95535987  0.89896798     0.04020
C1739       C  0.75159096  0.94491844  0.86726865    -0.12130
C1740       C  0.76047283  0.92382496  0.86549904     0.01520
C1741       C  0.76547669  0.91372508  0.89795028    -0.10660
C1742       C  0.75659932  0.92392598  0.93068081     0.04010
C1743       C  0.74607145  0.94486091  0.93008049    -0.10080
H1744       H  0.74831782  0.95367414  0.84411177     0.09600
H1745       H  0.77738328  0.89797956  0.89802334     0.07130
H1746       H  0.73766785  0.95334512  0.95375467     0.06980
C1747       C  0.72731302  0.04281625  0.90190982     0.04020
C1748       C  0.72154855  0.05317309  0.93379078    -0.12130
C1749       C  0.71206787  0.07419237  0.93566475     0.01520
C1750       C  0.70560309  0.08443751  0.90344442    -0.10660
C1751       C  0.71268578  0.07428371  0.87045810     0.04010
C1752       C  0.72372492  0.05336960  0.87083351    -0.10080
H1753       H  0.72613663  0.04458190  0.95711995     0.09600
H1754       H  0.69453918  0.10032014  0.90411118     0.07130
H1755       H  0.73105300  0.04500616  0.84689013     0.06980
C1756       C  0.74960584  0.88081527  0.99630235     0.04020
C1757       C  0.75464548  0.89145883  0.82814519    -0.12130
C1758       C  0.76071944  0.91267684  0.83010802     0.01520
C1759       C  0.76500019  0.92296058  0.99787005    -0.10660
C1760       C  0.75627153  0.91290502  0.96524715     0.04010
C1761       C  0.74577572  0.89200032  0.96573115    -0.10080
H1762       H  0.75475196  0.88299497  0.85152813     0.09600
H1763       H  0.77616746  0.93874423  0.99795555     0.07130
H1764       H  0.73459761  0.88437066  0.94193068     0.06980
C1765       C  0.75604557  0.85811200  0.99469217     0.04020
C1766       C  0.75102988  0.84605589  0.82455867    -0.12130
C1767       C  0.77427921  0.82629758  0.82382321     0.01520
C1768       C  0.80769305  0.82002695  0.99576517    -0.10660
C1769       C  0.79284193  0.82794090  0.96448853     0.04010
C1770       C  0.77063047  0.84769349  0.96339259    -0.10080
H1771       H  0.72846013  0.85151244  0.84752967     0.09600
H1772       H  0.82865220  0.80527836  0.99591853     0.07130
H1773       H  0.76432745  0.85416277  0.93829423     0.06980
O1774       O  0.72421707  0.81201453  0.92802553    -0.56930
C1775       C  0.63289713  0.75864473  0.89927821     0.75700
O1776       O  0.77823500  0.79281574  0.84460598    -0.58080
C1777       C  0.77556537  0.81245008  0.93966248     0.75670
C1778       C  0.83183774  0.75166794  0.89753697     0.78070
Cd1779     Cd  0.73992345  0.78077030  0.89604496     1.37470
O1780       O  0.65780601  0.76487720  0.92657620    -0.56920
O1781       O  0.80742213  0.75819371  0.92509086    -0.55730
C1782       C  0.75701716  0.81055069  0.84771211     0.78030
O1783       O  0.81170515  0.75780152  0.86909893    -0.58100
O1784       O  0.65562059  0.76358543  0.87077042    -0.56560
O1785       O  0.80800334  0.79728227  0.93333513    -0.56550
O1786       O  0.71910791  0.81360035  0.87100033    -0.55720
C1787       C  0.00304152  0.63888609  0.00275761     0.04020
C1788       C  0.01790387  0.64916457  0.83397946    -0.12130
C1789       C  0.04133337  0.66870343  0.83275247     0.01520
C1790       C  0.05725660  0.67640630  0.00138194    -0.10660
C1791       C  0.02378204  0.67046198  0.97349157     0.04010
C1792       C  0.99916269  0.65097578  0.97291877    -0.10080
H1793       H  0.01086031  0.64275889  0.85910324     0.09600
H1794       H  0.07913397  0.69093146  0.00106287     0.07130
H1795       H  0.97639206  0.64576814  0.95007949     0.06980
O1796       O  0.90889154  0.73233819  0.87138565    -0.56930
C1797       C  0.52479026  0.68438734  0.85769003     0.75700
O1798       O  0.56105880  0.73932484  0.92882868    -0.58080
C1799       C  0.88314024  0.73849191  0.89869659     0.75670
C1800       C  0.00737474  0.68638311  0.94979732     0.78070
Cd1801     Cd  0.99040867  0.71631927  0.90173978     1.37470
O1802       O  0.97413027  0.68484994  0.87069305    -0.56920
O1803       O  0.96840650  0.68381331  0.92733328    -0.55730
C1804       C  0.58195252  0.74540123  0.90041116     0.78030
O1805       O  0.53023411  0.70382268  0.95234729    -0.58100
O1806       O  0.55700886  0.69963725  0.86290807    -0.56560
O1807       O  0.90531700  0.73353412  0.92720032    -0.56550
O1808       O  0.55863627  0.73876306  0.87282885    -0.55720
O1809       O  0.98037425  0.31182343  0.92893026    -0.56930
C1810       C  0.89141862  0.25811137  0.90067498     0.75700
O1811       O  0.54480373  0.29346908  0.84930620    -0.58080
C1812       C  0.52916739  0.31160057  0.94385480     0.75670
C1813       C  0.59051565  0.25107327  0.89969920     0.78070
Cd1814     Cd  0.99868976  0.28021248  0.89841791     1.37460
O1815       O  0.91610992  0.26423551  0.92808334    -0.56920
O1816       O  0.56671781  0.25777811  0.92731831    -0.55730
C1817       C  0.02068652  0.31078240  0.85151807     0.78030
O1818       O  0.56984065  0.25706665  0.87129827    -0.58100
O1819       O  0.91441356  0.26315164  0.87227699    -0.56560
O1820       O  0.56017282  0.29579045  0.94022092    -0.56550
O1821       O  0.97926028  0.31294061  0.87287927    -0.55720
C1822       C  0.50912496  0.35782101  0.99870434     0.04020
C1823       C  0.51139083  0.34624777  0.82921736    -0.12130
C1824       C  0.53739911  0.32691178  0.82814257     0.01520
C1825       C  0.56744983  0.32078173  0.99874673    -0.10660
C1826       C  0.54544726  0.32763403  0.96810996     0.04010
C1827       C  0.51947684  0.34687944  0.96732435    -0.10080
H1828       H  0.48987206  0.35125143  0.85278911     0.09600
H1829       H  0.59051054  0.30642053  0.99859898     0.07130
H1830       H  0.50395562  0.35206260  0.94276390     0.06980
O1831       O  0.73162368  0.18448383  0.87218732    -0.56930
C1832       C  0.64178263  0.23786519  0.90071695     0.75700
O1833       O  0.79179360  0.20250404  0.95315118    -0.58080
C1834       C  0.78170138  0.18399120  0.85841297     0.75670
C1835       C  0.84049545  0.24485272  0.90170985     0.78070
Cd1836     Cd  0.74923484  0.21569261  0.90324148     1.37460
O1837       O  0.66719332  0.23168302  0.87332353    -0.56920
O1838       O  0.81730580  0.23816510  0.87412686    -0.55730
C1839       C  0.76767104  0.18526529  0.95084843     0.78030
O1840       O  0.81956080  0.23879293  0.93013371    -0.58100
O1841       O  0.66432086  0.23292338  0.92913715    -0.56560
O1842       O  0.81402745  0.19929208  0.86290486    -0.56550
O1843       O  0.72759471  0.18314400  0.92895274    -0.55720
C1844       C  0.75658076  0.13830723  0.80456433     0.04020
C1845       C  0.77117843  0.14883183  0.83559835    -0.12130
C1846       C  0.79778696  0.16786301  0.83413230     0.01520
C1847       C  0.81724594  0.17477124  0.80283728    -0.10660
C1848       C  0.78337381  0.16912468  0.97440994     0.04010
C1849       C  0.75600964  0.15008199  0.97414180    -0.10080
H1850       H  0.75836938  0.14362214  0.86077116     0.09600
H1851       H  0.84082008  0.18896518  0.80245155     0.07130
H1852       H  0.73246080  0.14531810  0.95133159     0.06980
C1853       C  0.99155967  0.37991624  0.99931921     0.04020
C1854       C  0.98597209  0.39076949  0.83100322    -0.12130
C1855       C  0.96994385  0.41134364  0.83277935     0.01520
C1856       C  0.96050479  0.42124888  0.00060858    -0.10660
C1857       C  0.97072480  0.41132916  0.96787642     0.04010
C1858       C  0.98637559  0.39076820  0.96831422    -0.10080
H1859       H  0.99723117  0.38345223  0.85464004     0.09600
H1860       H  0.94544663  0.43672133  0.00092217     0.07130
H1861       H  0.99745210  0.38356361  0.94407715     0.06980
C1862       C  0.49578590  0.54144082  0.89837096     0.04020
C1863       C  0.49360593  0.55202071  0.86736202    -0.12130
C1864       C  0.50198713  0.57306446  0.86665812     0.01520
C1865       C  0.51028022  0.58331447  0.89929622    -0.10660
C1866       C  0.50630074  0.57318832  0.93178577     0.04010
C1867       C  0.49976966  0.55201160  0.93003731    -0.10080
H1868       H  0.48440217  0.54353774  0.84391496     0.09600
H1869       H  0.52084707  0.59912896  0.89910078     0.07130
H1870       H  0.49698768  0.54322173  0.95318401     0.06980
C1871       C  0.97908222  0.45403756  0.90171808     0.04020
C1872       C  0.97567449  0.44353875  0.86990334    -0.12130
C1873       C  0.96817199  0.42243923  0.86810018     0.01520
C1874       C  0.96253247  0.41219607  0.90040864    -0.10660
C1875       C  0.96951608  0.42238673  0.93327656     0.04010
C1876       C  0.97903422  0.44337221  0.93275659    -0.10080
H1877       H  0.97984322  0.45215379  0.84655947     0.09600
H1878       H  0.95222556  0.39629047  0.89996726     0.07130
H1879       H  0.98772179  0.45166503  0.95649238     0.06980
C1880       C  0.49529822  0.61624643  0.00112994     0.04020
C1881       C  0.49067474  0.60506281  0.83168275    -0.12130
C1882       C  0.50096607  0.58410465  0.83209779     0.01520
C1883       C  0.50983927  0.57404108  0.99941844    -0.10660
C1884       C  0.50589302  0.58433570  0.96720375     0.04010
C1885       C  0.50028134  0.60558713  0.96925102    -0.10080
H1886       H  0.47941344  0.61278030  0.85550328     0.09600
H1887       H  0.52108372  0.55824589  0.99931251     0.07130
H1888       H  0.50107050  0.61409305  0.94593084     0.06980
C1889       C  0.94690147  0.51005665  0.91716804    -0.19420
C1890       C  0.49180441  0.51902586  0.89817033    -0.05980
C1891       C  0.53356137  0.50654923  0.88105274     0.14880
C1892       C  0.52888981  0.48542990  0.88321833    -0.19470
C1893       C  0.48382568  0.47645227  0.90216129    -0.05990
C1894       C  0.94219990  0.48896248  0.91934441     0.14870
C1895       C  0.89139141  0.48026605  0.93891183    -0.22820
H1896       H  0.91508159  0.51968350  0.93025726     0.16160
H1897       H  0.56069767  0.47581029  0.87010132     0.16190
C1898       C  0.58418957  0.51534535  0.86145960    -0.22770
H1899       H  0.86089147  0.49227987  0.74829061     0.06400
H1900       H  0.40669046  0.47210085  0.76189763     0.09630
H1901       H  0.86671845  0.46976154  0.92180689     0.09630
H1902       H  0.60906011  0.52573340  0.87867301     0.09610
H1903       H  0.06849716  0.52370704  0.03871926     0.09610
H1904       H  0.61442102  0.50336494  0.05170011     0.06390
C1905       C  0.78017734  0.98906479  0.91812760    -0.19420
C1906       C  0.73863874  0.97770764  0.89978805    -0.05980
C1907       C  0.69413520  0.98790701  0.88186311     0.14880
C1908       C  0.69308671  0.00910857  0.88235117    -0.19470
C1909       C  0.73441658  0.02048387  0.90080051    -0.05990
C1910       C  0.77920339  0.01028774  0.91854915     0.14870
C1911       C  0.82795485  0.02112159  0.93699560    -0.22820
H1912       H  0.81479168  0.98127639  0.93147862     0.16160
H1913       H  0.65841046  0.01686728  0.86901249     0.16190
C1914       C  0.64566382  0.97709224  0.86312593    -0.22770
H1915       H  0.87052401  0.01547355  0.72668329     0.06400
H1916       H  0.82547086  0.01802983  0.96508958     0.09630
H1917       H  0.82730967  0.03769876  0.93340622     0.09630
H1918       H  0.64620492  0.96050825  0.86661734     0.09610
H1919       H  0.64857993  0.98022675  0.83505928     0.09610
H1920       H  0.60301580  0.98268584  0.07326272     0.06390
loop_ 
_geom_bond_atom_site_label_1 
_geom_bond_atom_site_label_2 
_geom_bond_distance 
_geom_bond_site_symmetry_2 
_ccdc_geom_bond_type 
C1            C2   1.414       .  A
C1          C774   1.414   1_554  A
C1          C116   1.512       .  S
C2            C3   1.404       .  A
C2            H7   1.072       .  S
C3          C772   1.433       .  A
C3           C23   1.538       .  S
C4            C5   1.434       .  A
C4          C195   1.433       .  A
C4            H8   1.078       .  S
C5            C6   1.407       .  A
C5           C21   1.537       .  S
C6          C193   1.414       .  A
C6            H9   1.076       .  S
C10          C11   1.403       .  A
C10          C15   1.401       .  A
C10         C178   1.483       .  S
C11          C12   1.408       .  A
C11          H16   1.078       .  S
C12          C13   1.438       .  A
C12          C30   1.542       .  S
C13          C14   1.436       .  A
C13          H17   1.075       .  S
C14          C15   1.404       .  A
C14          C32   1.534       .  S
C15          H18   1.081       .  S
C19          C20   1.404       .  A
C19          C24   1.404       .  A
C19         C181   1.484       .  S
C20          C21   1.406       .  A
C20          H25   1.081       .  S
C21          C22   1.438       .  A
C22          C23   1.439       .  A
C22          H26   1.079       .  S
C23          C24   1.405       .  A
C24          H27   1.082       .  S
C28          C33   1.409       .  A
C28         C221   1.413       .  A
C28          C37   1.507       .  S
C29          C30   1.410       .  A
C29         C796   1.413   1_554  A
C29          H34   1.072       .  S
C30         C799   1.434   1_554  A
C31          C32   1.431       .  A
C31         C222   1.434       .  A
C31          H35   1.075       .  S
C32          C33   1.404       .  A
C33          H36   1.075       .  S
C37          C42   1.419       .  A
C37         C230   1.419       .  A
C38          C39   1.409       .  A
C38         C805   1.419   1_554  A
C38          H43   1.081       .  S
C39         C808   1.381   1_554  A
C39          C54   1.459       .  S
C40          C41   1.372       .  A
C40         C231   1.381       .  A
C40          H44   1.086       .  S
C41          C42   1.401       .  A
C41          C49   1.449       .  S
C42          H45   1.078       .  S
O46          C49   1.266       .  A
O46         Cd51   2.412       .  S
C47          C76   1.465       .  S
C47          O56   1.266       .  A
C47          O52   1.267       .  A
O48          C54   1.271       .  A
O48         Cd51   2.326       .  S
C49          O57   1.266       .  A
C50          C71   1.464       .  S
C50          O55   1.269       .  A
C50          O53   1.269       .  A
Cd51         O58   2.439       .  S
Cd51         O57   2.388       .  S
Cd51         O56   2.450       .  S
Cd51         O52   2.468       .  S
Cd51         O55   2.452       .  S
Cd51         O53   2.442       .  S
C54          O58   1.262       .  A
C59          C64   1.419       .  A
C59         C252   1.419       .  A
C59        C1112   1.507       .  S
C60          C61   1.402       .  A
C60         C827   1.419       .  A
C60          H65   1.079       .  S
C61         C830   1.372       .  A
C61        C1029   1.451       .  S
C62          C63   1.381       .  A
C62         C253   1.372       .  A
C62          H66   1.085       .  S
C63          C64   1.408       .  A
C63          C72   1.458       .  S
C64          H67   1.081       .  S
O68          C71   1.267       .  A
O68         Cd73   2.464       .  S
C69        C1021   1.451       .  S
C69          O78   1.267       .  A
C69        O1034   1.265   1_455  A
O70          C76   1.269       .  A
O70       Cd1033   2.455   1_455  S
C71          O79   1.266       .  A
C72          O75   1.262       .  A
C72        O1037   1.271       .  A
Cd73         O79   2.450       .  S
Cd73         O74   2.414       .  S
Cd73         O75   2.435       .  S
Cd73       O1030   2.455       .  S
Cd73       O1040   2.442       .  S
Cd73       O1038   2.389       .  S
Cd73       O1037   2.330       .  S
O74        C1029   1.265       .  A
C76          O80   1.269       .  A
O77        C1032   1.271       .  A
O77       Cd1033   2.330   1_455  S
O78       Cd1033   2.389   1_455  S
O80       Cd1033   2.442   1_455  S
O81        C1044   1.265       .  A
O81         Cd86   2.414       .  S
C82         C107   1.465       .  S
C82          O91   1.266       .  A
C82          O87   1.266       .  A
O83        C1049   1.271       .  A
O83       Cd1046   2.354   1_455  S
C84          C98   1.454       .  S
C84          O92   1.267       .  A
C84        O1041   1.265   1_455  A
C85         C104   1.465       .  S
C85          O90   1.269       .  A
C85          O88   1.269       .  A
Cd86         O93   2.435       .  S
Cd86         O91   2.459       .  S
Cd86         O87   2.463       .  S
Cd86       O1043   2.354       .  S
Cd86       O1052   2.378       .  S
Cd86       O1050   2.451       .  S
Cd86       O1048   2.442       .  S
O88       Cd1046   2.442   1_455  S
C89        C1056   1.461       .  S
C89          O93   1.262       .  A
C89        O1043   1.271       .  A
O90       Cd1046   2.451   1_455  S
O92       Cd1046   2.378   1_455  S
C94          C99   1.419       .  A
C94         C287   1.421       .  A
C94        C1085   1.513   1_455  S
C95          C96   1.408       .  A
C95         C862   1.421   1_554  A
C95         H100   1.080   1_455  S
C96         C865   1.380   1_554  A
C96        C1049   1.461       .  S
C97          C98   1.375       .  A
C97         C288   1.380       .  A
C97         H101   1.085       .  S
C98          C99   1.404       .  A
C99         H102   1.078       .  S
O103        C106   1.265       .  A
O103       Cd108   2.405       .  S
C104        O113   1.266       .  A
C104        O109   1.267       .  A
O105        C111   1.271       .  A
O105       Cd108   2.352       .  S
C106        C118   1.453       .  S
C106        O114   1.267       .  A
C107        O112   1.269       .  A
C107        O110   1.269       .  A
Cd108       O115   2.437       .  S
Cd108       O114   2.391       .  S
Cd108       O113   2.455       .  S
Cd108       O109   2.464       .  S
Cd108       O112   2.451       .  S
Cd108       O110   2.444       .  S
C111        C120   1.462       .  S
C111        O115   1.262       .  A
C116        C117   1.419       .  A
C116        C889   1.421   1_554  A
C117        C118   1.402       .  A
C117        H122   1.079       .  S
C118        C119   1.374       .  A
C119        C888   1.381   1_554  A
C119        H123   1.085       .  S
C120        C121   1.409       .  A
C120        C311   1.381       .  A
C121        C308   1.421       .  A
C121        H124   1.081       .  S
C125        C130   1.414       .  A
C125        C318   1.414       .  A
C125       C1054   1.513       .  S
C126        C127   1.408       .  A
C126        C893   1.414   1_554  A
C126        H131   1.075       .  S
C127        C896   1.434       .  A
C127        C145   1.539       .  S
C128        C129   1.432       .  A
C128        C319   1.434       .  A
C128        H132   1.078       .  S
C129        C130   1.405       .  A
C129        C147   1.537       .  S
C130        H133   1.072       .  S
C134        C135   1.401       .  A
C134        C139   1.402       .  A
C134        C162   1.484       .  S
C135        C136   1.405   1_655  A
C135        H140   1.080       .  S
C136        C137   1.436       .  A
C136        C154   1.535       .  S
C137        C138   1.437       .  A
C137        H141   1.074       .  S
C138        C139   1.408   1_455  A
C138        C156   1.543       .  S
C139        H142   1.078       .  S
C143        C144   1.404       .  A
C143        C148   1.403       .  A
C143       C1125   1.485       .  S
C144        C145   1.406       .  A
C144        H149   1.080       .  S
C145        C146   1.438       .  A
C146        C147   1.438       .  A
C146        H150   1.078       .  S
C147        C148   1.405       .  A
C148        H151   1.081       .  S
C152        C157   1.412   1_655  A
C152        C345   1.409       .  A
C152       C1019   1.507   1_655  S
C153        C154   1.404   1_655  A
C153        C920   1.409       .  A
C153        H158   1.074       .  S
C154        C923   1.430   1_554  A
C155        C156   1.434       .  A
C155        C346   1.430       .  A
C155        H159   1.074       .  S
C156        C157   1.410       .  A
C157        H160   1.072       .  S
C161        C166   1.403       .  A
C161       C1122   1.402       .  A
C161        H168   1.084       .  S
C162        C163   1.416   1_655  A
C162       C1121   1.402       .  A
C163        C164   1.404       .  A
C163        C170   1.509       .  S
C164        C165   1.404   1_455  A
C164        H169   1.084       .  S
C165       C1126   1.416       .  A
C165       C1103   1.485       .  S
C166       C1125   1.416       .  A
C166        C167   1.509       .  S
C167        H173   1.110       .  S
C167        H363   1.111       .  S
C167       H1324   1.108       .  S
C170        H174   1.110       .  S
C170       H1903   1.108       .  S
C170        H944   1.111       .  S
H171        C935   1.111       .  S
H172       C1895   1.108       .  S
H175       C1322   1.108       .  S
H176        C362   1.111       .  S
C177        C178   1.405       .  A
C177        C182   1.402   1_565  A
C177        H184   1.085       .  S
C178        C179   1.415       .  A
C179        C180   1.401   1_565  A
C179        C186   1.508       .  S
C180        C181   1.404       .  A
C180        H185   1.085       .  S
C181        C182   1.416       .  A
C182        C183   1.508       .  S
C183        H188   1.111       .  S
C183        H189   1.107       .  S
C183        H379   1.111       .  S
C186        H190   1.107       .  S
C186        H191   1.111       .  S
C186        H960   1.110       .  S
H187        C951   1.111       .  S
H192        C378   1.110       .  S
C193        C194   1.414       .  A
C193        C308   1.513       .  S
C194        C195   1.404       .  A
C194        H199   1.072       .  S
C195        C215   1.537       .  S
C196        C387   1.433       .  A
C196        C197   1.434       .  A
C196        H200   1.078       .  S
C197        C198   1.407       .  A
C197        C213   1.537       .  S
C198        C385   1.414       .  A
C198        H201   1.076       .  S
C202        C203   1.403       .  A
C202        C207   1.401       .  A
C202        C370   1.483       .  S
C203        C204   1.408       .  A
C203        H208   1.078       .  S
C204        C205   1.438       .  A
C204        C222   1.542       .  S
C205        C206   1.436       .  A
C205        H209   1.075       .  S
C206        C207   1.404       .  A
C206        C224   1.534       .  S
C207        H210   1.081       .  S
C211        C212   1.404       .  A
C211        C216   1.404       .  A
C211        C373   1.484       .  S
C212        C213   1.406       .  A
C212        H217   1.081       .  S
C213        C214   1.438       .  A
C214        C215   1.438       .  A
C214        H218   1.079       .  S
C215        C216   1.405       .  A
C216        H219   1.082       .  S
C220        C413   1.413       .  A
C220        C225   1.409       .  A
C220        C229   1.507       .  S
C221        C222   1.410       .  A
C221        H226   1.072       .  S
C223        C414   1.434       .  A
C223        C224   1.431       .  A
C223        H227   1.075       .  S
C224        C225   1.404       .  A
C225        H228   1.075       .  S
C229        C422   1.419       .  A
C229        C234   1.419       .  A
C230        C231   1.409       .  A
C230        H235   1.081       .  S
C231        C246   1.459       .  S
C232        C423   1.381       .  A
C232        C233   1.372       .  A
C232        H236   1.086       .  S
C233        C234   1.401       .  A
C233        C241   1.449       .  S
C234        H237   1.078       .  S
O238        C241   1.266       .  A
O238       Cd243   2.412       .  S
C239        C268   1.465       .  S
C239        O248   1.266       .  A
C239        O244   1.267       .  A
O240        C246   1.271       .  A
O240       Cd243   2.326       .  S
C241        O249   1.266       .  A
C242        C263   1.464       .  S
C242        O247   1.269       .  A
C242        O245   1.269       .  A
Cd243       O250   2.439       .  S
Cd243       O249   2.388       .  S
Cd243       O248   2.450       .  S
Cd243       O244   2.468       .  S
Cd243       O247   2.452       .  S
Cd243       O245   2.442       .  S
C246        O250   1.262       .  A
C251        C444   1.419       .  A
C251        C256   1.419       .  A
C251       C1304   1.507       .  S
C252        C253   1.402       .  A
C252        H257   1.079       .  S
C253       C1221   1.451       .  S
C254        C445   1.372       .  A
C254        C255   1.381       .  A
C254        H258   1.085       .  S
C255        C256   1.408       .  A
C255        C264   1.458       .  S
C256        H259   1.081       .  S
O260        C263   1.267       .  A
O260       Cd265   2.464       .  S
C261       C1213   1.450       .  S
C261        O270   1.267       .  A
C261       O1226   1.265   1_455  A
O262        C268   1.269       .  A
O262      Cd1225   2.455   1_455  S
C263        O271   1.266       .  A
C264       O1229   1.271       .  A
C264        O267   1.262       .  A
Cd265      O1222   2.455       .  S
Cd265      O1232   2.442       .  S
Cd265       O271   2.450       .  S
Cd265      O1230   2.389       .  S
Cd265       O266   2.414       .  S
Cd265      O1229   2.330       .  S
Cd265       O267   2.435       .  S
O266       C1221   1.265       .  A
C268        O272   1.269       .  A
O269       C1224   1.271       .  A
O269      Cd1225   2.330   1_455  S
O270      Cd1225   2.389   1_455  S
O272      Cd1225   2.442   1_455  S
O273       C1236   1.265       .  A
O273       Cd278   2.414       .  S
C274        C299   1.465       .  S
C274        O283   1.266       .  A
C274        O279   1.266       .  A
O275       C1241   1.271       .  A
O275      Cd1238   2.354   1_455  S
C276        C290   1.454       .  S
C276       O1233   1.265   1_455  A
C276        O284   1.267       .  A
C277        C296   1.465       .  S
C277        O282   1.269       .  A
C277        O280   1.269       .  A
Cd278      O1235   2.354       .  S
Cd278       O285   2.436       .  S
Cd278      O1244   2.378       .  S
Cd278       O283   2.459       .  S
Cd278       O279   2.463       .  S
Cd278      O1242   2.452       .  S
Cd278      O1240   2.442       .  S
O280      Cd1238   2.442   1_455  S
C281       C1248   1.461       .  S
C281       O1235   1.271       .  A
C281        O285   1.262       .  A
O282      Cd1238   2.452   1_455  S
O284      Cd1238   2.378   1_455  S
C286        C479   1.421       .  A
C286        C291   1.419       .  A
C286       C1277   1.513   1_455  S
C287        C288   1.408       .  A
C287        H292   1.080   1_455  S
C288       C1241   1.461       .  S
C289        C480   1.380       .  A
C289        C290   1.375       .  A
C289        H293   1.085       .  S
C290        C291   1.404       .  A
C291        H294   1.078       .  S
O295        C298   1.265       .  A
O295       Cd300   2.405       .  S
C296        O305   1.266       .  A
C296        O301   1.267       .  A
O297        C303   1.271       .  A
O297       Cd300   2.352       .  S
C298        C310   1.453       .  S
C298        O306   1.267       .  A
C299        O304   1.269       .  A
C299        O302   1.269       .  A
Cd300       O307   2.437       .  S
Cd300       O306   2.391       .  S
Cd300       O305   2.455       .  S
Cd300       O301   2.464       .  S
Cd300       O304   2.451       .  S
Cd300       O302   2.445       .  S
C303        C312   1.462       .  S
C303        O307   1.262       .  A
C308        C309   1.419       .  A
C309        C310   1.402       .  A
C309        H314   1.078       .  S
C310        C311   1.374       .  A
C311        H315   1.085       .  S
C312        C503   1.381       .  A
C312        C313   1.409       .  A
C313        C500   1.421       .  A
C313        H316   1.081       .  S
C317        C510   1.414       .  A
C317        C322   1.414       .  A
C317       C1246   1.513       .  S
C318        C319   1.408       .  A
C318        H323   1.075       .  S
C319        C337   1.539       .  S
C320        C511   1.434       .  A
C320        C321   1.432       .  A
C320        H324   1.078       .  S
C321        C322   1.405       .  A
C321        C339   1.537       .  S
C322        H325   1.072       .  S
C326        C327   1.401       .  A
C326        C331   1.402       .  A
C326        C354   1.484       .  S
C327        C328   1.405   1_655  A
C327        H332   1.080       .  S
C328        C329   1.436       .  A
C328        C346   1.535       .  S
C329        C330   1.437       .  A
C329        H333   1.074       .  S
C330        C331   1.408   1_455  A
C330        C348   1.543       .  S
C331        H334   1.078       .  S
C335        C336   1.404       .  A
C335        C340   1.403       .  A
C335       C1317   1.485       .  S
C336        C337   1.406       .  A
C336        H341   1.080       .  S
C337        C338   1.438       .  A
C338        C339   1.438       .  A
C338        H342   1.078       .  S
C339        C340   1.405       .  A
C340        H343   1.081       .  S
C344        C537   1.409       .  A
C344        C349   1.412   1_655  A
C344       C1211   1.507   1_655  S
C345        C346   1.404   1_655  A
C345        H350   1.074       .  S
C347        C538   1.430       .  A
C347        C348   1.434       .  A
C347        H351   1.074       .  S
C348        C349   1.410       .  A
C349        H352   1.072       .  S
C353       C1314   1.402       .  A
C353        C358   1.403       .  A
C353        H360   1.084       .  S
C354       C1313   1.402       .  A
C354        C355   1.416   1_655  A
C355        C356   1.404       .  A
C355        C362   1.509       .  S
C356        C357   1.404   1_455  A
C356        H361   1.084       .  S
C357       C1318   1.416       .  A
C357       C1295   1.485       .  S
C358       C1317   1.416       .  A
C358        C359   1.509       .  S
C359        H555   1.111       .  S
C359       H1516   1.108       .  S
C359        H365   1.110       .  S
C362        H366   1.110       .  S
C362       H1135   1.108       .  S
H364       C1127   1.108       .  S
H367       C1514   1.108       .  S
H368        C554   1.111       .  S
C369        C370   1.404       .  A
C369        C374   1.402   1_565  A
C369        H376   1.085       .  S
C370        C371   1.415       .  A
C371        C372   1.401   1_565  A
C371        C378   1.508       .  S
C372        C373   1.404       .  A
C372        H377   1.085       .  S
C373        C374   1.416       .  A
C374        C375   1.508       .  S
C375        H571   1.111       .  S
C375        H380   1.111       .  S
C375        H381   1.107       .  S
C378        H382   1.107       .  S
C378        H383   1.111       .  S
H384        C570   1.110       .  S
C385        C386   1.414       .  A
C385        C500   1.513       .  S
C386        C387   1.404       .  A
C386        H391   1.072       .  S
C387        C407   1.537       .  S
C388        C579   1.433       .  A
C388        C389   1.434       .  A
C388        H392   1.078       .  S
C389        C390   1.407       .  A
C389        C405   1.537       .  S
C390        C577   1.414       .  A
C390        H393   1.076       .  S
C394        C395   1.403       .  A
C394        C399   1.401       .  A
C394        C562   1.483       .  S
C395        C396   1.408       .  A
C395        H400   1.078       .  S
C396        C397   1.438       .  A
C396        C414   1.542       .  S
C397        C398   1.436       .  A
C397        H401   1.075       .  S
C398        C399   1.404       .  A
C398        C416   1.534       .  S
C399        H402   1.081       .  S
C403        C404   1.404       .  A
C403        C408   1.404       .  A
C403        C565   1.484       .  S
C404        C405   1.406       .  A
C404        H409   1.081       .  S
C405        C406   1.438       .  A
C406        C407   1.439       .  A
C406        H410   1.079       .  S
C407        C408   1.405       .  A
C408        H411   1.082       .  S
C412        C605   1.413       .  A
C412        C417   1.409       .  A
C412        C421   1.507       .  S
C413        C414   1.410       .  A
C413        H418   1.072       .  S
C415        C606   1.434       .  A
C415        C416   1.431       .  A
C415        H419   1.075       .  S
C416        C417   1.404       .  A
C417        H420   1.075       .  S
C421        C614   1.419       .  A
C421        C426   1.419       .  A
C422        C423   1.409       .  A
C422        H427   1.081       .  S
C423        C438   1.459       .  S
C424        C615   1.381       .  A
C424        C425   1.372       .  A
C424        H428   1.086       .  S
C425        C426   1.401       .  A
C425        C433   1.449       .  S
C426        H429   1.078       .  S
O430        C433   1.266       .  A
O430       Cd435   2.412       .  S
C431        C460   1.465       .  S
C431        O440   1.266       .  A
C431        O436   1.267       .  A
O432        C438   1.271       .  A
O432       Cd435   2.326       .  S
C433        O441   1.266       .  A
C434        C455   1.464       .  S
C434        O439   1.269       .  A
C434        O437   1.269       .  A
Cd435       O442   2.439       .  S
Cd435       O441   2.388       .  S
Cd435       O440   2.450       .  S
Cd435       O436   2.468       .  S
Cd435       O439   2.452       .  S
Cd435       O437   2.442       .  S
C438        O442   1.262       .  A
C443        C636   1.419       .  A
C443        C448   1.419       .  A
C443       C1496   1.507       .  S
C444        C445   1.402       .  A
C444        H449   1.079       .  S
C445       C1413   1.451       .  S
C446        C637   1.372       .  A
C446        C447   1.381       .  A
C446        H450   1.085       .  S
C447        C448   1.408       .  A
C447        C456   1.458       .  S
C448        H451   1.081       .  S
O452        C455   1.267       .  A
O452       Cd457   2.464       .  S
C453       C1405   1.451       .  S
C453        O462   1.267       .  A
C453       O1418   1.265   1_455  A
O454        C460   1.269       .  A
O454      Cd1417   2.455   1_455  S
C455        O463   1.266       .  A
C456       O1421   1.271       .  A
C456        O459   1.262       .  A
Cd457      O1414   2.455       .  S
Cd457      O1424   2.442       .  S
Cd457       O463   2.450       .  S
Cd457      O1422   2.389       .  S
Cd457       O458   2.414       .  S
Cd457      O1421   2.330       .  S
Cd457       O459   2.435       .  S
O458       C1413   1.265       .  A
C460        O464   1.269       .  A
O461       C1416   1.271       .  A
O461      Cd1417   2.330   1_455  S
O462      Cd1417   2.389   1_455  S
O464      Cd1417   2.442   1_455  S
O465       C1428   1.265       .  A
O465       Cd470   2.414       .  S
C466        C491   1.465       .  S
C466        O475   1.266       .  A
C466        O471   1.266       .  A
O467       C1433   1.271       .  A
O467      Cd1430   2.354   1_455  S
C468        C482   1.454       .  S
C468       O1425   1.265   1_455  A
C468        O476   1.267       .  A
C469        C488   1.465       .  S
C469        O474   1.269       .  A
C469        O472   1.269       .  A
Cd470      O1427   2.354       .  S
Cd470       O477   2.435       .  S
Cd470      O1436   2.378       .  S
Cd470       O475   2.459       .  S
Cd470       O471   2.463       .  S
Cd470      O1434   2.452       .  S
Cd470      O1432   2.442       .  S
O472      Cd1430   2.442   1_455  S
C473       C1440   1.461       .  S
C473       O1427   1.271       .  A
C473        O477   1.262       .  A
O474      Cd1430   2.452   1_455  S
O476      Cd1430   2.378   1_455  S
C478        C671   1.421       .  A
C478        C483   1.419       .  A
C478       C1469   1.513   1_455  S
C479        C480   1.408       .  A
C479        H484   1.080   1_455  S
C480       C1433   1.461       .  S
C481        C672   1.380       .  A
C481        C482   1.375       .  A
C481        H485   1.085       .  S
C482        C483   1.404       .  A
C483        H486   1.078       .  S
O487        C490   1.265       .  A
O487       Cd492   2.405       .  S
C488        O497   1.266       .  A
C488        O493   1.267       .  A
O489        C495   1.271       .  A
O489       Cd492   2.352       .  S
C490        C502   1.453       .  S
C490        O498   1.267       .  A
C491        O496   1.269       .  A
C491        O494   1.269       .  A
Cd492       O499   2.437       .  S
Cd492       O498   2.391       .  S
Cd492       O497   2.455       .  S
Cd492       O493   2.464       .  S
Cd492       O496   2.451       .  S
Cd492       O494   2.444       .  S
C495        C504   1.462       .  S
C495        O499   1.262       .  A
C500        C501   1.419       .  A
C501        C502   1.402       .  A
C501        H506   1.078       .  S
C502        C503   1.374       .  A
C503        H507   1.085       .  S
C504        C695   1.381       .  A
C504        C505   1.409       .  A
C505        C692   1.421       .  A
C505        H508   1.081       .  S
C509        C702   1.414       .  A
C509        C514   1.414       .  A
C509       C1438   1.513       .  S
C510        C511   1.408       .  A
C510        H515   1.075       .  S
C511        C529   1.539       .  S
C512        C703   1.434       .  A
C512        C513   1.432       .  A
C512        H516   1.078       .  S
C513        C514   1.405       .  A
C513        C531   1.537       .  S
C514        H517   1.072       .  S
C518        C519   1.401       .  A
C518        C523   1.402       .  A
C518        C546   1.484       .  S
C519        C520   1.405   1_655  A
C519        H524   1.080       .  S
C520        C521   1.436       .  A
C520        C538   1.535       .  S
C521        C522   1.437       .  A
C521        H525   1.074       .  S
C522        C523   1.408   1_455  A
C522        C540   1.543       .  S
C523        H526   1.078       .  S
C527        C528   1.404       .  A
C527        C532   1.403       .  A
C527       C1509   1.485       .  S
C528        C529   1.406       .  A
C528        H533   1.080       .  S
C529        C530   1.438       .  A
C530        C531   1.438       .  A
C530        H534   1.078       .  S
C531        C532   1.405       .  A
C532        H535   1.081       .  S
C536        C729   1.409       .  A
C536        C541   1.412   1_655  A
C536       C1403   1.507   1_655  S
C537        C538   1.404   1_655  A
C537        H542   1.074       .  S
C539        C730   1.430       .  A
C539        C540   1.434       .  A
C539        H543   1.074       .  S
C540        C541   1.410       .  A
C541        H544   1.072       .  S
C545       C1506   1.402       .  A
C545        C550   1.403       .  A
C545        H552   1.084       .  S
C546       C1505   1.402       .  A
C546        C547   1.416   1_655  A
C547        C548   1.404       .  A
C547        C554   1.509       .  S
C548        C549   1.404   1_455  A
C548        H553   1.084       .  S
C549       C1510   1.416       .  A
C549       C1487   1.485       .  S
C550       C1509   1.416       .  A
C550        C551   1.509       .  S
C551        H747   1.111       .  S
C551       H1708   1.108       .  S
C551        H557   1.110       .  S
C554        H558   1.110       .  S
C554       H1327   1.108       .  S
H556       C1319   1.108       .  S
H559       C1706   1.108       .  S
H560        C746   1.111       .  S
C561        C562   1.405       .  A
C561        C566   1.402   1_565  A
C561        H568   1.085       .  S
C562        C563   1.415       .  A
C563        C564   1.401   1_565  A
C563        C570   1.508       .  S
C564        C565   1.404       .  A
C564        H569   1.085       .  S
C565        C566   1.416       .  A
C566        C567   1.508       .  S
C567        H763   1.111       .  S
C567        H572   1.111       .  S
C567        H573   1.107       .  S
C570        H574   1.107       .  S
C570        H575   1.111       .  S
H576        C762   1.110       .  S
C577        C578   1.414       .  A
C577        C692   1.513       .  S
C578        C579   1.404       .  A
C578        H583   1.072       .  S
C579        C599   1.537       .  S
C580        C771   1.433       .  A
C580        C581   1.434       .  A
C580        H584   1.078       .  S
C581        C582   1.407       .  A
C581        C597   1.537       .  S
C582        C769   1.414       .  A
C582        H585   1.076       .  S
C586        C587   1.403       .  A
C586        C591   1.401       .  A
C586        C754   1.483       .  S
C587        C588   1.408       .  A
C587        H592   1.078       .  S
C588        C589   1.438       .  A
C588        C606   1.542       .  S
C589        C590   1.436       .  A
C589        H593   1.075       .  S
C590        C591   1.404       .  A
C590        C608   1.534       .  S
C591        H594   1.081       .  S
C595        C596   1.404       .  A
C595        C600   1.404       .  A
C595        C757   1.484       .  S
C596        C597   1.406       .  A
C596        H601   1.081       .  S
C597        C598   1.438       .  A
C598        C599   1.439       .  A
C598        H602   1.079       .  S
C599        C600   1.405       .  A
C600        H603   1.082       .  S
C604        C797   1.413       .  A
C604        C609   1.409       .  A
C604        C613   1.507       .  S
C605        C606   1.410       .  A
C605        H610   1.072       .  S
C607        C798   1.434       .  A
C607        C608   1.431       .  A
C607        H611   1.075       .  S
C608        C609   1.404       .  A
C609        H612   1.075       .  S
C613        C806   1.419       .  A
C613        C618   1.419       .  A
C614        C615   1.409       .  A
C614        H619   1.081       .  S
C615        C630   1.459       .  S
C616        C807   1.381       .  A
C616        C617   1.372       .  A
C616        H620   1.086       .  S
C617        C618   1.401       .  A
C617        C625   1.449       .  S
C618        H621   1.078       .  S
O622        C625   1.266       .  A
O622       Cd627   2.412       .  S
C623        C652   1.465       .  S
C623        O632   1.266       .  A
C623        O628   1.267       .  A
O624        C630   1.271       .  A
O624       Cd627   2.326       .  S
C625        O633   1.266       .  A
C626        C647   1.464       .  S
C626        O631   1.269       .  A
C626        O629   1.269       .  A
Cd627       O634   2.439       .  S
Cd627       O633   2.388       .  S
Cd627       O632   2.450       .  S
Cd627       O628   2.468       .  S
Cd627       O631   2.452       .  S
Cd627       O629   2.442       .  S
C630        O634   1.262       .  A
C635        C828   1.419       .  A
C635        C640   1.419       .  A
C635       C1688   1.507       .  S
C636        C637   1.402       .  A
C636        H641   1.079       .  S
C637       C1605   1.451       .  S
C638        C829   1.372       .  A
C638        C639   1.381       .  A
C638        H642   1.085       .  S
C639        C640   1.408       .  A
C639        C648   1.458       .  S
C640        H643   1.081       .  S
O644        C647   1.267       .  A
O644       Cd649   2.464       .  S
C645       C1597   1.451       .  S
C645        O654   1.267       .  A
C645       O1610   1.265   1_455  A
O646        C652   1.269       .  A
O646      Cd1609   2.455   1_455  S
C647        O655   1.266       .  A
C648       O1613   1.271       .  A
C648        O651   1.262       .  A
Cd649      O1606   2.455       .  S
Cd649      O1616   2.442       .  S
Cd649       O655   2.450       .  S
Cd649      O1614   2.389       .  S
Cd649       O650   2.414       .  S
Cd649      O1613   2.330       .  S
Cd649       O651   2.435       .  S
O650       C1605   1.265       .  A
C652        O656   1.269       .  A
O653       C1608   1.271       .  A
O653      Cd1609   2.330   1_455  S
O654      Cd1609   2.389   1_455  S
O656      Cd1609   2.442   1_455  S
O657       C1620   1.265       .  A
O657       Cd662   2.414       .  S
C658        C683   1.465       .  S
C658        O667   1.266       .  A
C658        O663   1.266       .  A
O659       C1625   1.271       .  A
O659      Cd1622   2.354   1_455  S
C660        C674   1.454       .  S
C660       O1617   1.265   1_455  A
C660        O668   1.267       .  A
C661        C680   1.465       .  S
C661        O666   1.269       .  A
C661        O664   1.269       .  A
Cd662      O1619   2.354       .  S
Cd662       O669   2.436       .  S
Cd662      O1628   2.378       .  S
Cd662       O667   2.459       .  S
Cd662       O663   2.463       .  S
Cd662      O1626   2.452       .  S
Cd662      O1624   2.442       .  S
O664      Cd1622   2.442   1_455  S
C665       C1632   1.461       .  S
C665       O1619   1.271       .  A
C665        O669   1.262       .  A
O666      Cd1622   2.452   1_455  S
O668      Cd1622   2.378   1_455  S
C670        C863   1.421       .  A
C670        C675   1.420       .  A
C670       C1661   1.513   1_455  S
C671        C672   1.408       .  A
C671        H676   1.080   1_455  S
C672       C1625   1.461       .  S
C673        C864   1.380       .  A
C673        C674   1.375       .  A
C673        H677   1.085       .  S
C674        C675   1.404       .  A
C675        H678   1.078       .  S
O679        C682   1.265       .  A
O679       Cd684   2.405       .  S
C680        O689   1.266       .  A
C680        O685   1.267       .  A
O681        C687   1.271       .  A
O681       Cd684   2.353       .  S
C682        C694   1.453       .  S
C682        O690   1.267       .  A
C683        O688   1.269       .  A
C683        O686   1.269       .  A
Cd684       O691   2.437       .  S
Cd684       O690   2.391       .  S
Cd684       O689   2.455       .  S
Cd684       O685   2.464       .  S
Cd684       O688   2.451       .  S
Cd684       O686   2.445       .  S
C687        C696   1.462       .  S
C687        O691   1.262       .  A
C692        C693   1.419       .  A
C693        C694   1.402       .  A
C693        H698   1.078       .  S
C694        C695   1.374       .  A
C695        H699   1.085       .  S
C696        C887   1.381       .  A
C696        C697   1.409       .  A
C697        C884   1.421       .  A
C697        H700   1.081       .  S
C701        C894   1.414       .  A
C701        C706   1.414       .  A
C701       C1630   1.513       .  S
C702        C703   1.408       .  A
C702        H707   1.075       .  S
C703        C721   1.539       .  S
C704        C895   1.434       .  A
C704        C705   1.432       .  A
C704        H708   1.078       .  S
C705        C706   1.405       .  A
C705        C723   1.537       .  S
C706        H709   1.072       .  S
C710        C711   1.401       .  A
C710        C715   1.402       .  A
C710        C738   1.484       .  S
C711        C712   1.405   1_655  A
C711        H716   1.080       .  S
C712        C713   1.436       .  A
C712        C730   1.535       .  S
C713        C714   1.437       .  A
C713        H717   1.074       .  S
C714        C715   1.408   1_455  A
C714        C732   1.543       .  S
C715        H718   1.078       .  S
C719        C720   1.404       .  A
C719        C724   1.403       .  A
C719       C1701   1.485       .  S
C720        C721   1.406       .  A
C720        H725   1.080       .  S
C721        C722   1.438       .  A
C722        C723   1.438       .  A
C722        H726   1.078       .  S
C723        C724   1.405       .  A
C724        H727   1.081       .  S
C728        C921   1.409       .  A
C728        C733   1.412   1_655  A
C728       C1595   1.507   1_655  S
C729        C730   1.404   1_655  A
C729        H734   1.074       .  S
C731        C922   1.430       .  A
C731        C732   1.434       .  A
C731        H735   1.074       .  S
C732        C733   1.410       .  A
C733        H736   1.072       .  S
C737       C1698   1.402       .  A
C737        C742   1.403       .  A
C737        H744   1.084       .  S
C738       C1697   1.402       .  A
C738        C739   1.416   1_655  A
C739        C740   1.404       .  A
C739        C746   1.509       .  S
C740        C741   1.404   1_455  A
C740        H745   1.084       .  S
C741       C1702   1.416       .  A
C741       C1679   1.485       .  S
C742       C1701   1.416       .  A
C742        C743   1.509       .  S
C743        H939   1.111       .  S
C743       H1900   1.108       .  S
C743        H749   1.110       .  S
C746        H750   1.110       .  S
C746       H1519   1.108       .  S
H748       C1511   1.108       .  S
H751       C1898   1.108       .  S
H752        C938   1.111       .  S
C753        C754   1.405       .  A
C753        C758   1.402   1_565  A
C753        H760   1.085       .  S
C754        C755   1.415       .  A
C755        C756   1.401   1_565  A
C755        C762   1.508       .  S
C756        C757   1.404       .  A
C756        H761   1.085       .  S
C757        C758   1.416       .  A
C758        C759   1.508       .  S
C759        H955   1.111       .  S
C759        H764   1.111       .  S
C759        H765   1.107       .  S
C762        H766   1.107       .  S
C762        H767   1.111       .  S
H768        C954   1.110       .  S
C769        C770   1.414       .  A
C769        C884   1.513       .  S
C770        C771   1.404       .  A
C770        H775   1.072       .  S
C771        C791   1.537       .  S
C772        C773   1.434   1_554  A
C772        H776   1.078       .  S
C773        C774   1.407       .  A
C773        C789   1.537       .  S
C774        H777   1.076       .  S
C778        C779   1.403       .  A
C778        C783   1.401       .  A
C778        C946   1.483       .  S
C779        C780   1.408       .  A
C779        H784   1.078       .  S
C780        C781   1.438       .  A
C780        C798   1.542       .  S
C781        C782   1.436       .  A
C781        H785   1.075       .  S
C782        C783   1.404       .  A
C782        C800   1.534       .  S
C783        H786   1.081       .  S
C787        C788   1.404       .  A
C787        C792   1.404       .  A
C787        C949   1.484       .  S
C788        C789   1.406       .  A
C788        H793   1.081       .  S
C789        C790   1.438       .  A
C790        C791   1.439       .  A
C790        H794   1.079       .  S
C791        C792   1.405       .  A
C792        H795   1.082       .  S
C796        C801   1.409       .  A
C796        C805   1.507       .  S
C797        C798   1.410       .  A
C797        H802   1.072       .  S
C799        C800   1.431       .  A
C799        H803   1.075       .  S
C800        C801   1.404       .  A
C801        H804   1.075       .  S
C805        C810   1.419       .  A
C806        C807   1.409       .  A
C806        H811   1.081       .  S
C807        C822   1.459       .  S
C808        C809   1.372       .  A
C808        H812   1.086       .  S
C809        C810   1.401       .  A
C809        C817   1.449       .  S
C810        H813   1.078       .  S
O814        C817   1.266       .  A
O814       Cd819   2.412       .  S
C815        C844   1.465       .  S
C815        O824   1.266       .  A
C815        O820   1.267       .  A
O816        C822   1.271       .  A
O816       Cd819   2.326       .  S
C817        O825   1.266       .  A
C818        C839   1.464       .  S
C818        O823   1.269       .  A
C818        O821   1.269       .  A
Cd819       O826   2.439       .  S
Cd819       O825   2.388       .  S
Cd819       O824   2.450       .  S
Cd819       O820   2.468       .  S
Cd819       O823   2.452       .  S
Cd819       O821   2.442       .  S
C822        O826   1.262       .  A
C827        C832   1.419   1_554  A
C827       C1880   1.507       .  S
C828        C829   1.402       .  A
C828        H833   1.079       .  S
C829       C1797   1.451       .  S
C830        C831   1.381   1_554  A
C830        H834   1.085       .  S
C831        C832   1.408       .  A
C831        C840   1.458       .  S
C832        H835   1.081       .  S
O836        C839   1.267       .  A
O836       Cd841   2.464       .  S
C837       C1789   1.451       .  S
C837        O846   1.267       .  A
C837       O1802   1.265   1_455  A
O838        C844   1.269       .  A
O838      Cd1801   2.455   1_455  S
C839        O847   1.266       .  A
C840       O1805   1.271       .  A
C840        O843   1.262       .  A
Cd841      O1798   2.455       .  S
Cd841      O1808   2.442       .  S
Cd841       O847   2.450       .  S
Cd841      O1806   2.389       .  S
Cd841       O842   2.414       .  S
Cd841      O1805   2.330       .  S
Cd841       O843   2.435       .  S
O842       C1797   1.265       .  A
C844        O848   1.269       .  A
O845       C1800   1.271       .  A
O845      Cd1801   2.330   1_455  S
O846      Cd1801   2.389   1_455  S
O848      Cd1801   2.442   1_455  S
O849       C1812   1.265       .  A
O849       Cd854   2.414       .  S
C850        C875   1.465       .  S
C850        O859   1.266       .  A
C850        O855   1.266       .  A
O851       C1817   1.271       .  A
O851      Cd1814   2.354   1_455  S
C852        C866   1.454       .  S
C852       O1809   1.265   1_455  A
C852        O860   1.267       .  A
C853        C872   1.465       .  S
C853        O858   1.269       .  A
C853        O856   1.269       .  A
Cd854      O1811   2.354       .  S
Cd854       O861   2.435       .  S
Cd854      O1820   2.377       .  S
Cd854       O859   2.459       .  S
Cd854       O855   2.463       .  S
Cd854      O1818   2.452       .  S
Cd854      O1816   2.441       .  S
O856      Cd1814   2.441   1_455  S
C857       C1824   1.461       .  S
C857       O1811   1.271       .  A
C857        O861   1.262       .  A
O858      Cd1814   2.452   1_455  S
O860      Cd1814   2.377   1_455  S
C862        C867   1.419       .  A
C862       C1853   1.513   1_455  S
C863        C864   1.408       .  A
C863        H868   1.080   1_455  S
C864       C1817   1.461       .  S
C865        C866   1.375       .  A
C865        H869   1.085       .  S
C866        C867   1.404       .  A
C867        H870   1.078       .  S
O871        C874   1.265       .  A
O871       Cd876   2.404       .  S
C872        O881   1.266       .  A
C872        O877   1.267       .  A
O873        C879   1.271       .  A
O873       Cd876   2.351       .  S
C874        C886   1.452       .  S
C874        O882   1.267       .  A
C875        O880   1.269       .  A
C875        O878   1.269       .  A
Cd876       O883   2.438       .  S
Cd876       O882   2.392       .  S
Cd876       O881   2.454       .  S
Cd876       O877   2.464       .  S
Cd876       O880   2.451       .  S
Cd876       O878   2.445       .  S
C879        C888   1.462       .  S
C879        O883   1.262       .  A
C884        C885   1.419       .  A
C885        C886   1.402       .  A
C885        H890   1.078       .  S
C886        C887   1.374       .  A
C887        H891   1.085       .  S
C888        C889   1.409       .  A
C889        H892   1.081       .  S
C893        C898   1.414       .  A
C893       C1822   1.513       .  S
C894        C895   1.408       .  A
C894        H899   1.075       .  S
C895        C913   1.539       .  S
C896        C897   1.432   1_554  A
C896        H900   1.078       .  S
C897        C898   1.405       .  A
C897        C915   1.537       .  S
C898        H901   1.072       .  S
C902        C903   1.401       .  A
C902        C907   1.402       .  A
C902        C930   1.484       .  S
C903        C904   1.405   1_655  A
C903        H908   1.080       .  S
C904        C905   1.436       .  A
C904        C922   1.535       .  S
C905        C906   1.437       .  A
C905        H909   1.074       .  S
C906        C907   1.408   1_455  A
C906        C924   1.543       .  S
C907        H910   1.078       .  S
C911        C912   1.404       .  A
C911        C916   1.403       .  A
C911       C1893   1.485       .  S
C912        C913   1.406       .  A
C912        H917   1.080       .  S
C913        C914   1.438       .  A
C914        C915   1.438       .  A
C914        H918   1.078       .  S
C915        C916   1.405       .  A
C916        H919   1.081       .  S
C920        C925   1.412   1_654  A
C920       C1787   1.507   1_655  S
C921        C922   1.404   1_655  A
C921        H926   1.074       .  S
C923        C924   1.434       .  A
C923        H927   1.074       .  S
C924        C925   1.410       .  A
C925        H928   1.072       .  S
C929       C1890   1.402       .  A
C929        C934   1.403       .  A
C929        H936   1.084       .  S
C930       C1889   1.402       .  A
C930        C931   1.416   1_655  A
C931        C932   1.404       .  A
C931        C938   1.509       .  S
C932        C933   1.404   1_455  A
C932        H937   1.084       .  S
C933       C1894   1.416       .  A
C933       C1871   1.485       .  S
C934       C1893   1.416       .  A
C934        C935   1.509       .  S
C935       H1132   1.108       .  S
C935        H941   1.110       .  S
C938        H942   1.110       .  S
C938       H1711   1.108       .  S
H940       C1703   1.108       .  S
H943       C1130   1.108       .  S
C945        C946   1.405       .  A
C945        C950   1.402   1_565  A
C945        H952   1.085       .  S
C946        C947   1.415       .  A
C947        C948   1.401   1_565  A
C947        C954   1.508       .  S
C948        C949   1.404       .  A
C948        H953   1.085       .  S
C949        C950   1.416       .  A
C950        C951   1.508       .  S
C951        H956   1.111       .  S
C951        H957   1.107       .  S
C954        H958   1.107       .  S
C954        H959   1.111       .  S
C961        C962   1.414       .  A
C961       C1734   1.414   1_554  A
C961       C1076   1.512       .  S
C962        C963   1.404       .  A
C962        H967   1.072       .  S
C963       C1732   1.433       .  A
C963        C983   1.538       .  S
C964       C1155   1.433       .  A
C964        C965   1.434       .  A
C964        H968   1.078       .  S
C965        C966   1.407       .  A
C965        C981   1.537       .  S
C966       C1153   1.414       .  A
C966        H969   1.076       .  S
C970        C971   1.403       .  A
C970        C975   1.401       .  A
C970       C1138   1.483       .  S
C971        C972   1.408       .  A
C971        H976   1.078       .  S
C972        C973   1.438       .  A
C972        C990   1.542       .  S
C973        C974   1.436       .  A
C973        H977   1.075       .  S
C974        C975   1.404       .  A
C974        C992   1.534       .  S
C975        H978   1.081       .  S
C979        C980   1.404       .  A
C979        C984   1.404       .  A
C979       C1141   1.484       .  S
C980        C981   1.406       .  A
C980        H985   1.081       .  S
C981        C982   1.438       .  A
C982        C983   1.439       .  A
C982        H986   1.079       .  S
C983        C984   1.405       .  A
C984        H987   1.082       .  S
C988       C1181   1.413       .  A
C988        C993   1.409       .  A
C988        C997   1.507       .  S
C989       C1756   1.413   1_554  A
C989        C990   1.410       .  A
C989        H994   1.072       .  S
C990       C1759   1.434   1_554  A
C991       C1182   1.434       .  A
C991        C992   1.431       .  A
C991        H995   1.075       .  S
C992        C993   1.404       .  A
C993        H996   1.075       .  S
C997       C1190   1.419       .  A
C997       C1002   1.419       .  A
C998       C1765   1.419   1_554  A
C998        C999   1.409       .  A
C998       H1003   1.081       .  S
C999       C1768   1.381   1_554  A
C999       C1014   1.459       .  S
C1000      C1191   1.381       .  A
C1000      C1001   1.372       .  A
C1000      H1004   1.086       .  S
C1001      C1002   1.401       .  A
C1001      C1009   1.449       .  S
C1002      H1005   1.078       .  S
O1006      C1009   1.266       .  A
O1006     Cd1011   2.412       .  S
C1007      C1036   1.465       .  S
C1007      O1016   1.266       .  A
C1007      O1012   1.267       .  A
O1008      C1014   1.271       .  A
O1008     Cd1011   2.326       .  S
C1009      O1017   1.266       .  A
C1010      C1031   1.464       .  S
C1010      O1015   1.269       .  A
C1010      O1013   1.269       .  A
Cd1011     O1018   2.439       .  S
Cd1011     O1017   2.388       .  S
Cd1011     O1016   2.450       .  S
Cd1011     O1012   2.468       .  S
Cd1011     O1015   2.452       .  S
Cd1011     O1013   2.442       .  S
C1014      O1018   1.262       .  A
C1019      C1212   1.419       .  A
C1019      C1024   1.419   1_455  A
C1020      C1787   1.419       .  A
C1020      C1021   1.402       .  A
C1020      H1025   1.079       .  S
C1021      C1790   1.372       .  A
C1022      C1213   1.372       .  A
C1022      C1023   1.381       .  A
C1022      H1026   1.085       .  S
C1023      C1024   1.408   1_455  A
C1023      C1032   1.458       .  S
C1024      H1027   1.081       .  S
O1028      C1031   1.267       .  A
O1028     Cd1033   2.464       .  S
C1029      O1038   1.267       .  A
O1030      C1036   1.269       .  A
C1031      O1039   1.266       .  A
C1032      O1035   1.262   1_455  A
Cd1033     O1039   2.450       .  S
Cd1033     O1034   2.414       .  S
Cd1033     O1035   2.435       .  S
C1036      O1040   1.269       .  A
O1041     Cd1046   2.414       .  S
C1042      C1067   1.465       .  S
C1042      O1051   1.266       .  A
C1042      O1047   1.266       .  A
C1044      C1058   1.454       .  S
C1044      O1052   1.267       .  A
C1045      C1064   1.465       .  S
C1045      O1050   1.269       .  A
C1045      O1048   1.269       .  A
Cd1046     O1053   2.435       .  S
Cd1046     O1051   2.459       .  S
Cd1046     O1047   2.463       .  S
C1049      O1053   1.262   1_455  A
C1054      C1247   1.421       .  A
C1054      C1059   1.419       .  A
C1055      C1822   1.421   1_554  A
C1055      C1056   1.408       .  A
C1055      H1060   1.080       .  S
C1056      C1825   1.380   1_554  A
C1057      C1248   1.380       .  A
C1057      C1058   1.375       .  A
C1057      H1061   1.085       .  S
C1058      C1059   1.404       .  A
C1059      H1062   1.078       .  S
O1063      C1066   1.265       .  A
O1063     Cd1068   2.405       .  S
C1064      O1073   1.266       .  A
C1064      O1069   1.267       .  A
O1065      C1071   1.271       .  A
O1065     Cd1068   2.352       .  S
C1066      C1078   1.453       .  S
C1066      O1074   1.267       .  A
C1067      O1072   1.269       .  A
C1067      O1070   1.269       .  A
Cd1068     O1075   2.437       .  S
Cd1068     O1074   2.391       .  S
Cd1068     O1073   2.455       .  S
Cd1068     O1069   2.464       .  S
Cd1068     O1072   2.451       .  S
Cd1068     O1070   2.444       .  S
C1071      C1080   1.462       .  S
C1071      O1075   1.262       .  A
C1076      C1077   1.419       .  A
C1076      C1849   1.421   1_554  A
C1077      C1078   1.402       .  A
C1077      H1082   1.079       .  S
C1078      C1079   1.374       .  A
C1079      C1848   1.381   1_554  A
C1079      H1083   1.085       .  S
C1080      C1271   1.381       .  A
C1080      C1081   1.409       .  A
C1081      C1268   1.421       .  A
C1081      H1084   1.081       .  S
C1085      C1278   1.414       .  A
C1085      C1090   1.414       .  A
C1086      C1853   1.414   1_554  A
C1086      C1087   1.408       .  A
C1086      H1091   1.075       .  S
C1087      C1856   1.434       .  A
C1087      C1105   1.539       .  S
C1088      C1279   1.434       .  A
C1088      C1089   1.432       .  A
C1088      H1092   1.078       .  S
C1089      C1090   1.405       .  A
C1089      C1107   1.537       .  S
C1090      H1093   1.072       .  S
C1094      C1095   1.401       .  A
C1094      C1099   1.402       .  A
C1094      C1122   1.484       .  S
C1095      C1096   1.405       .  A
C1095      H1100   1.080       .  S
C1096      C1097   1.436       .  A
C1096      C1114   1.535       .  S
C1097      C1098   1.437       .  A
C1097      H1101   1.074       .  S
C1098      C1099   1.408       .  A
C1098      C1116   1.543       .  S
C1099      H1102   1.078       .  S
C1103      C1104   1.404       .  A
C1103      C1108   1.403       .  A
C1104      C1105   1.406       .  A
C1104      H1109   1.080       .  S
C1105      C1106   1.438       .  A
C1106      C1107   1.438       .  A
C1106      H1110   1.078       .  S
C1107      C1108   1.405       .  A
C1108      H1111   1.081       .  S
C1112      C1305   1.409       .  A
C1112      C1117   1.412       .  A
C1113      C1880   1.409       .  A
C1113      C1114   1.404       .  A
C1113      H1118   1.074       .  S
C1114      C1883   1.430   1_554  A
C1115      C1306   1.430       .  A
C1115      C1116   1.434       .  A
C1115      H1119   1.074       .  S
C1116      C1117   1.410       .  A
C1117      H1120   1.072       .  S
C1121      C1126   1.403       .  A
C1121      H1128   1.084       .  S
C1122      C1123   1.416       .  A
C1123      C1124   1.404       .  A
C1123      C1130   1.509       .  S
C1124      C1125   1.404       .  A
C1124      H1129   1.084       .  S
C1126      C1127   1.509       .  S
C1127      H1323   1.111       .  S
C1127      H1133   1.110       .  S
C1130      H1134   1.110       .  S
C1130      H1904   1.111       .  S
H1131      C1895   1.111       .  S
H1136      C1322   1.111       .  S
C1137      C1138   1.405       .  A
C1137      C1142   1.402   1_565  A
C1137      H1144   1.085       .  S
C1138      C1139   1.415       .  A
C1139      C1140   1.401   1_565  A
C1139      C1146   1.508       .  S
C1140      C1141   1.404       .  A
C1140      H1145   1.085       .  S
C1141      C1142   1.416       .  A
C1142      C1143   1.508       .  S
C1143      H1339   1.111       .  S
C1143      H1148   1.111       .  S
C1143      H1149   1.107       .  S
C1146      H1150   1.107       .  S
C1146      H1151   1.111       .  S
C1146      H1920   1.110       .  S
H1147      C1911   1.111       .  S
H1152      C1338   1.110       .  S
C1153      C1154   1.414       .  A
C1153      C1268   1.513       .  S
C1154      C1155   1.404       .  A
C1154      H1159   1.072       .  S
C1155      C1175   1.537       .  S
C1156      C1347   1.433       .  A
C1156      C1157   1.434       .  A
C1156      H1160   1.078       .  S
C1157      C1158   1.407       .  A
C1157      C1173   1.537       .  S
C1158      C1345   1.414       .  A
C1158      H1161   1.076       .  S
C1162      C1163   1.403       .  A
C1162      C1167   1.401       .  A
C1162      C1330   1.483       .  S
C1163      C1164   1.408       .  A
C1163      H1168   1.078       .  S
C1164      C1165   1.438       .  A
C1164      C1182   1.542       .  S
C1165      C1166   1.436       .  A
C1165      H1169   1.075       .  S
C1166      C1167   1.404       .  A
C1166      C1184   1.534       .  S
C1167      H1170   1.081       .  S
C1171      C1172   1.404       .  A
C1171      C1176   1.404       .  A
C1171      C1333   1.484       .  S
C1172      C1173   1.406       .  A
C1172      H1177   1.081       .  S
C1173      C1174   1.438       .  A
C1174      C1175   1.438       .  A
C1174      H1178   1.079       .  S
C1175      C1176   1.405       .  A
C1176      H1179   1.082       .  S
C1180      C1373   1.413       .  A
C1180      C1185   1.409       .  A
C1180      C1189   1.507       .  S
C1181      C1182   1.410       .  A
C1181      H1186   1.072       .  S
C1183      C1374   1.434       .  A
C1183      C1184   1.431       .  A
C1183      H1187   1.075       .  S
C1184      C1185   1.404       .  A
C1185      H1188   1.075       .  S
C1189      C1382   1.419       .  A
C1189      C1194   1.419       .  A
C1190      C1191   1.409       .  A
C1190      H1195   1.081       .  S
C1191      C1206   1.459       .  S
C1192      C1383   1.381       .  A
C1192      C1193   1.372       .  A
C1192      H1196   1.086       .  S
C1193      C1194   1.401       .  A
C1193      C1201   1.449       .  S
C1194      H1197   1.078       .  S
O1198      C1201   1.266       .  A
O1198     Cd1203   2.412       .  S
C1199      C1228   1.465       .  S
C1199      O1208   1.266       .  A
C1199      O1204   1.267       .  A
O1200      C1206   1.271       .  A
O1200     Cd1203   2.326       .  S
C1201      O1209   1.266       .  A
C1202      C1223   1.464       .  S
C1202      O1207   1.269       .  A
C1202      O1205   1.269       .  A
Cd1203     O1210   2.439       .  S
Cd1203     O1209   2.388       .  S
Cd1203     O1208   2.450       .  S
Cd1203     O1204   2.468       .  S
Cd1203     O1207   2.452       .  S
Cd1203     O1205   2.442       .  S
C1206      O1210   1.262       .  A
C1211      C1404   1.419       .  A
C1211      C1216   1.419   1_455  A
C1212      C1213   1.402       .  A
C1212      H1217   1.079       .  S
C1214      C1405   1.372       .  A
C1214      C1215   1.381       .  A
C1214      H1218   1.085       .  S
C1215      C1216   1.408   1_455  A
C1215      C1224   1.458       .  S
C1216      H1219   1.081       .  S
O1220      C1223   1.267       .  A
O1220     Cd1225   2.464       .  S
C1221      O1230   1.267       .  A
O1222      C1228   1.269       .  A
C1223      O1231   1.266       .  A
C1224      O1227   1.262   1_455  A
Cd1225     O1231   2.450       .  S
Cd1225     O1226   2.414       .  S
Cd1225     O1227   2.435       .  S
C1228      O1232   1.269       .  A
O1233     Cd1238   2.414       .  S
C1234      C1259   1.465       .  S
C1234      O1243   1.266       .  A
C1234      O1239   1.266       .  A
C1236      C1250   1.454       .  S
C1236      O1244   1.267       .  A
C1237      C1256   1.465       .  S
C1237      O1242   1.269       .  A
C1237      O1240   1.269       .  A
Cd1238     O1245   2.436       .  S
Cd1238     O1243   2.459       .  S
Cd1238     O1239   2.463       .  S
C1241      O1245   1.262   1_455  A
C1246      C1439   1.421       .  A
C1246      C1251   1.419       .  A
C1247      C1248   1.408       .  A
C1247      H1252   1.080       .  S
C1249      C1440   1.380       .  A
C1249      C1250   1.375       .  A
C1249      H1253   1.085       .  S
C1250      C1251   1.404       .  A
C1251      H1254   1.078       .  S
O1255      C1258   1.265       .  A
O1255     Cd1260   2.405       .  S
C1256      O1265   1.266       .  A
C1256      O1261   1.267       .  A
O1257      C1263   1.271       .  A
O1257     Cd1260   2.352       .  S
C1258      C1270   1.453       .  S
C1258      O1266   1.267       .  A
C1259      O1264   1.269       .  A
C1259      O1262   1.269       .  A
Cd1260     O1267   2.437       .  S
Cd1260     O1266   2.391       .  S
Cd1260     O1265   2.455       .  S
Cd1260     O1261   2.464       .  S
Cd1260     O1264   2.451       .  S
Cd1260     O1262   2.445       .  S
C1263      C1272   1.462       .  S
C1263      O1267   1.262       .  A
C1268      C1269   1.419       .  A
C1269      C1270   1.402       .  A
C1269      H1274   1.078       .  S
C1270      C1271   1.374       .  A
C1271      H1275   1.085       .  S
C1272      C1463   1.381       .  A
C1272      C1273   1.409       .  A
C1273      C1460   1.421       .  A
C1273      H1276   1.081       .  S
C1277      C1470   1.414       .  A
C1277      C1282   1.414       .  A
C1278      C1279   1.408       .  A
C1278      H1283   1.075       .  S
C1279      C1297   1.539       .  S
C1280      C1471   1.434       .  A
C1280      C1281   1.432       .  A
C1280      H1284   1.078       .  S
C1281      C1282   1.405       .  A
C1281      C1299   1.537       .  S
C1282      H1285   1.072       .  S
C1286      C1287   1.401       .  A
C1286      C1291   1.402       .  A
C1286      C1314   1.484       .  S
C1287      C1288   1.405       .  A
C1287      H1292   1.080       .  S
C1288      C1289   1.436       .  A
C1288      C1306   1.535       .  S
C1289      C1290   1.437       .  A
C1289      H1293   1.074       .  S
C1290      C1291   1.408       .  A
C1290      C1308   1.543       .  S
C1291      H1294   1.078       .  S
C1295      C1296   1.404       .  A
C1295      C1300   1.403       .  A
C1296      C1297   1.406       .  A
C1296      H1301   1.080       .  S
C1297      C1298   1.438       .  A
C1298      C1299   1.438       .  A
C1298      H1302   1.078       .  S
C1299      C1300   1.405       .  A
C1300      H1303   1.081       .  S
C1304      C1497   1.409       .  A
C1304      C1309   1.412       .  A
C1305      C1306   1.404       .  A
C1305      H1310   1.074       .  S
C1307      C1498   1.430       .  A
C1307      C1308   1.434       .  A
C1307      H1311   1.074       .  S
C1308      C1309   1.410       .  A
C1309      H1312   1.072       .  S
C1313      C1318   1.403       .  A
C1313      H1320   1.084       .  S
C1314      C1315   1.416       .  A
C1315      C1316   1.404       .  A
C1315      C1322   1.509       .  S
C1316      C1317   1.404       .  A
C1316      H1321   1.084       .  S
C1318      C1319   1.509       .  S
C1319      H1515   1.111       .  S
C1319      H1325   1.110       .  S
C1322      H1326   1.110       .  S
H1328      C1514   1.111       .  S
C1329      C1330   1.404       .  A
C1329      C1334   1.402   1_565  A
C1329      H1336   1.085       .  S
C1330      C1331   1.415       .  A
C1331      C1332   1.401   1_565  A
C1331      C1338   1.508       .  S
C1332      C1333   1.404       .  A
C1332      H1337   1.085       .  S
C1333      C1334   1.416       .  A
C1334      C1335   1.508       .  S
C1335      H1531   1.111       .  S
C1335      H1340   1.111       .  S
C1335      H1341   1.107       .  S
C1338      H1342   1.107       .  S
C1338      H1343   1.111       .  S
H1344      C1530   1.110       .  S
C1345      C1346   1.414       .  A
C1345      C1460   1.513       .  S
C1346      C1347   1.404       .  A
C1346      H1351   1.072       .  S
C1347      C1367   1.537       .  S
C1348      C1539   1.433       .  A
C1348      C1349   1.434       .  A
C1348      H1352   1.078       .  S
C1349      C1350   1.407       .  A
C1349      C1365   1.537       .  S
C1350      C1537   1.414       .  A
C1350      H1353   1.076       .  S
C1354      C1355   1.403       .  A
C1354      C1359   1.401       .  A
C1354      C1522   1.483       .  S
C1355      C1356   1.408       .  A
C1355      H1360   1.078       .  S
C1356      C1357   1.438       .  A
C1356      C1374   1.542       .  S
C1357      C1358   1.436       .  A
C1357      H1361   1.075       .  S
C1358      C1359   1.404       .  A
C1358      C1376   1.534       .  S
C1359      H1362   1.081       .  S
C1363      C1364   1.404       .  A
C1363      C1368   1.404       .  A
C1363      C1525   1.484       .  S
C1364      C1365   1.406       .  A
C1364      H1369   1.081       .  S
C1365      C1366   1.438       .  A
C1366      C1367   1.439       .  A
C1366      H1370   1.079       .  S
C1367      C1368   1.405       .  A
C1368      H1371   1.082       .  S
C1372      C1565   1.413       .  A
C1372      C1377   1.409       .  A
C1372      C1381   1.507       .  S
C1373      C1374   1.410       .  A
C1373      H1378   1.072       .  S
C1375      C1566   1.434       .  A
C1375      C1376   1.431       .  A
C1375      H1379   1.075       .  S
C1376      C1377   1.404       .  A
C1377      H1380   1.075       .  S
C1381      C1574   1.419       .  A
C1381      C1386   1.419       .  A
C1382      C1383   1.409       .  A
C1382      H1387   1.081       .  S
C1383      C1398   1.459       .  S
C1384      C1575   1.381       .  A
C1384      C1385   1.372       .  A
C1384      H1388   1.086       .  S
C1385      C1386   1.401       .  A
C1385      C1393   1.449       .  S
C1386      H1389   1.078       .  S
O1390      C1393   1.266       .  A
O1390     Cd1395   2.412       .  S
C1391      C1420   1.465       .  S
C1391      O1400   1.266       .  A
C1391      O1396   1.267       .  A
O1392      C1398   1.271       .  A
O1392     Cd1395   2.326       .  S
C1393      O1401   1.266       .  A
C1394      C1415   1.464       .  S
C1394      O1399   1.269       .  A
C1394      O1397   1.269       .  A
Cd1395     O1402   2.439       .  S
Cd1395     O1401   2.388       .  S
Cd1395     O1400   2.450       .  S
Cd1395     O1396   2.468       .  S
Cd1395     O1399   2.452       .  S
Cd1395     O1397   2.442       .  S
C1398      O1402   1.262       .  A
C1403      C1596   1.419       .  A
C1403      C1408   1.419   1_455  A
C1404      C1405   1.402       .  A
C1404      H1409   1.079       .  S
C1406      C1597   1.372       .  A
C1406      C1407   1.381       .  A
C1406      H1410   1.085       .  S
C1407      C1408   1.408   1_455  A
C1407      C1416   1.458       .  S
C1408      H1411   1.081       .  S
O1412      C1415   1.267       .  A
O1412     Cd1417   2.464       .  S
C1413      O1422   1.267       .  A
O1414      C1420   1.269       .  A
C1415      O1423   1.266       .  A
C1416      O1419   1.262   1_455  A
Cd1417     O1423   2.450       .  S
Cd1417     O1418   2.414       .  S
Cd1417     O1419   2.435       .  S
C1420      O1424   1.269       .  A
O1425     Cd1430   2.414       .  S
C1426      C1451   1.465       .  S
C1426      O1435   1.266       .  A
C1426      O1431   1.266       .  A
C1428      C1442   1.454       .  S
C1428      O1436   1.267       .  A
C1429      C1448   1.465       .  S
C1429      O1434   1.269       .  A
C1429      O1432   1.269       .  A
Cd1430     O1437   2.435       .  S
Cd1430     O1435   2.459       .  S
Cd1430     O1431   2.463       .  S
C1433      O1437   1.262   1_455  A
C1438      C1631   1.421       .  A
C1438      C1443   1.419       .  A
C1439      C1440   1.408       .  A
C1439      H1444   1.080       .  S
C1441      C1632   1.380       .  A
C1441      C1442   1.375       .  A
C1441      H1445   1.085       .  S
C1442      C1443   1.404       .  A
C1443      H1446   1.078       .  S
O1447      C1450   1.265       .  A
O1447     Cd1452   2.405       .  S
C1448      O1457   1.266       .  A
C1448      O1453   1.267       .  A
O1449      C1455   1.271       .  A
O1449     Cd1452   2.352       .  S
C1450      C1462   1.453       .  S
C1450      O1458   1.267       .  A
C1451      O1456   1.269       .  A
C1451      O1454   1.269       .  A
Cd1452     O1459   2.437       .  S
Cd1452     O1458   2.391       .  S
Cd1452     O1457   2.455       .  S
Cd1452     O1453   2.464       .  S
Cd1452     O1456   2.451       .  S
Cd1452     O1454   2.444       .  S
C1455      C1464   1.462       .  S
C1455      O1459   1.262       .  A
C1460      C1461   1.419       .  A
C1461      C1462   1.402       .  A
C1461      H1466   1.078       .  S
C1462      C1463   1.374       .  A
C1463      H1467   1.085       .  S
C1464      C1655   1.381       .  A
C1464      C1465   1.409       .  A
C1465      C1652   1.421       .  A
C1465      H1468   1.081       .  S
C1469      C1662   1.414       .  A
C1469      C1474   1.414       .  A
C1470      C1471   1.408       .  A
C1470      H1475   1.075       .  S
C1471      C1489   1.539       .  S
C1472      C1663   1.434       .  A
C1472      C1473   1.432       .  A
C1472      H1476   1.078       .  S
C1473      C1474   1.405       .  A
C1473      C1491   1.537       .  S
C1474      H1477   1.072       .  S
C1478      C1479   1.401       .  A
C1478      C1483   1.402       .  A
C1478      C1506   1.484       .  S
C1479      C1480   1.405       .  A
C1479      H1484   1.080       .  S
C1480      C1481   1.436       .  A
C1480      C1498   1.535       .  S
C1481      C1482   1.437       .  A
C1481      H1485   1.074       .  S
C1482      C1483   1.408       .  A
C1482      C1500   1.543       .  S
C1483      H1486   1.078       .  S
C1487      C1488   1.404       .  A
C1487      C1492   1.403       .  A
C1488      C1489   1.406       .  A
C1488      H1493   1.080       .  S
C1489      C1490   1.438       .  A
C1490      C1491   1.438       .  A
C1490      H1494   1.078       .  S
C1491      C1492   1.405       .  A
C1492      H1495   1.081       .  S
C1496      C1689   1.409       .  A
C1496      C1501   1.412       .  A
C1497      C1498   1.404       .  A
C1497      H1502   1.074       .  S
C1499      C1690   1.430       .  A
C1499      C1500   1.434       .  A
C1499      H1503   1.074       .  S
C1500      C1501   1.410       .  A
C1501      H1504   1.072       .  S
C1505      C1510   1.403       .  A
C1505      H1512   1.084       .  S
C1506      C1507   1.416       .  A
C1507      C1508   1.404       .  A
C1507      C1514   1.509       .  S
C1508      C1509   1.404       .  A
C1508      H1513   1.084       .  S
C1510      C1511   1.509       .  S
C1511      H1707   1.111       .  S
C1511      H1517   1.110       .  S
C1514      H1518   1.110       .  S
H1520      C1706   1.111       .  S
C1521      C1522   1.405       .  A
C1521      C1526   1.402   1_565  A
C1521      H1528   1.085       .  S
C1522      C1523   1.415       .  A
C1523      C1524   1.401   1_565  A
C1523      C1530   1.508       .  S
C1524      C1525   1.404       .  A
C1524      H1529   1.085       .  S
C1525      C1526   1.416       .  A
C1526      C1527   1.508       .  S
C1527      H1723   1.111       .  S
C1527      H1532   1.111       .  S
C1527      H1533   1.107       .  S
C1530      H1534   1.107       .  S
C1530      H1535   1.111       .  S
H1536      C1722   1.110       .  S
C1537      C1538   1.414       .  A
C1537      C1652   1.513       .  S
C1538      C1539   1.404       .  A
C1538      H1543   1.072       .  S
C1539      C1559   1.537       .  S
C1540      C1731   1.433       .  A
C1540      C1541   1.434       .  A
C1540      H1544   1.078       .  S
C1541      C1542   1.407       .  A
C1541      C1557   1.537       .  S
C1542      C1729   1.414       .  A
C1542      H1545   1.076       .  S
C1546      C1547   1.403       .  A
C1546      C1551   1.401       .  A
C1546      C1714   1.483       .  S
C1547      C1548   1.408       .  A
C1547      H1552   1.078       .  S
C1548      C1549   1.438       .  A
C1548      C1566   1.542       .  S
C1549      C1550   1.436       .  A
C1549      H1553   1.075       .  S
C1550      C1551   1.404       .  A
C1550      C1568   1.534       .  S
C1551      H1554   1.081       .  S
C1555      C1556   1.404       .  A
C1555      C1560   1.404       .  A
C1555      C1717   1.484       .  S
C1556      C1557   1.406       .  A
C1556      H1561   1.081       .  S
C1557      C1558   1.438       .  A
C1558      C1559   1.439       .  A
C1558      H1562   1.079       .  S
C1559      C1560   1.405       .  A
C1560      H1563   1.082       .  S
C1564      C1757   1.413       .  A
C1564      C1569   1.409       .  A
C1564      C1573   1.507       .  S
C1565      C1566   1.410       .  A
C1565      H1570   1.072       .  S
C1567      C1758   1.434       .  A
C1567      C1568   1.431       .  A
C1567      H1571   1.075       .  S
C1568      C1569   1.404       .  A
C1569      H1572   1.075       .  S
C1573      C1766   1.419       .  A
C1573      C1578   1.419       .  A
C1574      C1575   1.409       .  A
C1574      H1579   1.081       .  S
C1575      C1590   1.459       .  S
C1576      C1767   1.381       .  A
C1576      C1577   1.372       .  A
C1576      H1580   1.086       .  S
C1577      C1578   1.401       .  A
C1577      C1585   1.449       .  S
C1578      H1581   1.078       .  S
O1582      C1585   1.266       .  A
O1582     Cd1587   2.412       .  S
C1583      C1612   1.465       .  S
C1583      O1592   1.266       .  A
C1583      O1588   1.267       .  A
O1584      C1590   1.271       .  A
O1584     Cd1587   2.326       .  S
C1585      O1593   1.266       .  A
C1586      C1607   1.464       .  S
C1586      O1591   1.269       .  A
C1586      O1589   1.269       .  A
Cd1587     O1594   2.439       .  S
Cd1587     O1593   2.388       .  S
Cd1587     O1592   2.450       .  S
Cd1587     O1588   2.468       .  S
Cd1587     O1591   2.452       .  S
Cd1587     O1589   2.442       .  S
C1590      O1594   1.262       .  A
C1595      C1788   1.419       .  A
C1595      C1600   1.419   1_455  A
C1596      C1597   1.402       .  A
C1596      H1601   1.079       .  S
C1598      C1789   1.372       .  A
C1598      C1599   1.381       .  A
C1598      H1602   1.085       .  S
C1599      C1600   1.408   1_455  A
C1599      C1608   1.458       .  S
C1600      H1603   1.081       .  S
O1604      C1607   1.267       .  A
O1604     Cd1609   2.464       .  S
C1605      O1614   1.267       .  A
O1606      C1612   1.269       .  A
C1607      O1615   1.266       .  A
C1608      O1611   1.262   1_455  A
Cd1609     O1615   2.450       .  S
Cd1609     O1610   2.414       .  S
Cd1609     O1611   2.435       .  S
C1612      O1616   1.269       .  A
O1617     Cd1622   2.414       .  S
C1618      C1643   1.465       .  S
C1618      O1627   1.266       .  A
C1618      O1623   1.266       .  A
C1620      C1634   1.454       .  S
C1620      O1628   1.267       .  A
C1621      C1640   1.465       .  S
C1621      O1626   1.269       .  A
C1621      O1624   1.269       .  A
Cd1622     O1629   2.436       .  S
Cd1622     O1627   2.459       .  S
Cd1622     O1623   2.463       .  S
C1625      O1629   1.262   1_455  A
C1630      C1823   1.421       .  A
C1630      C1635   1.420       .  A
C1631      C1632   1.408       .  A
C1631      H1636   1.080       .  S
C1633      C1824   1.380       .  A
C1633      C1634   1.375       .  A
C1633      H1637   1.085       .  S
C1634      C1635   1.404       .  A
C1635      H1638   1.078       .  S
O1639      C1642   1.265       .  A
O1639     Cd1644   2.405       .  S
C1640      O1649   1.266       .  A
C1640      O1645   1.267       .  A
O1641      C1647   1.271       .  A
O1641     Cd1644   2.353       .  S
C1642      C1654   1.453       .  S
C1642      O1650   1.267       .  A
C1643      O1648   1.269       .  A
C1643      O1646   1.269       .  A
Cd1644     O1651   2.437       .  S
Cd1644     O1650   2.391       .  S
Cd1644     O1649   2.455       .  S
Cd1644     O1645   2.464       .  S
Cd1644     O1648   2.451       .  S
Cd1644     O1646   2.445       .  S
C1647      C1656   1.462       .  S
C1647      O1651   1.262       .  A
C1652      C1653   1.419       .  A
C1653      C1654   1.402       .  A
C1653      H1658   1.078       .  S
C1654      C1655   1.374       .  A
C1655      H1659   1.085       .  S
C1656      C1847   1.381       .  A
C1656      C1657   1.409       .  A
C1657      C1844   1.421       .  A
C1657      H1660   1.081       .  S
C1661      C1854   1.414       .  A
C1661      C1666   1.414       .  A
C1662      C1663   1.408       .  A
C1662      H1667   1.075       .  S
C1663      C1681   1.539       .  S
C1664      C1855   1.434       .  A
C1664      C1665   1.432       .  A
C1664      H1668   1.078       .  S
C1665      C1666   1.405       .  A
C1665      C1683   1.537       .  S
C1666      H1669   1.072       .  S
C1670      C1671   1.401       .  A
C1670      C1675   1.402       .  A
C1670      C1698   1.484       .  S
C1671      C1672   1.405       .  A
C1671      H1676   1.080       .  S
C1672      C1673   1.436       .  A
C1672      C1690   1.535       .  S
C1673      C1674   1.437       .  A
C1673      H1677   1.074       .  S
C1674      C1675   1.408       .  A
C1674      C1692   1.543       .  S
C1675      H1678   1.078       .  S
C1679      C1680   1.404       .  A
C1679      C1684   1.403       .  A
C1680      C1681   1.406       .  A
C1680      H1685   1.080       .  S
C1681      C1682   1.438       .  A
C1682      C1683   1.438       .  A
C1682      H1686   1.078       .  S
C1683      C1684   1.405       .  A
C1684      H1687   1.081       .  S
C1688      C1881   1.409       .  A
C1688      C1693   1.412       .  A
C1689      C1690   1.404       .  A
C1689      H1694   1.074       .  S
C1691      C1882   1.430       .  A
C1691      C1692   1.434       .  A
C1691      H1695   1.074       .  S
C1692      C1693   1.410       .  A
C1693      H1696   1.072       .  S
C1697      C1702   1.403       .  A
C1697      H1704   1.084       .  S
C1698      C1699   1.416       .  A
C1699      C1700   1.404       .  A
C1699      C1706   1.509       .  S
C1700      C1701   1.404       .  A
C1700      H1705   1.084       .  S
C1702      C1703   1.509       .  S
C1703      H1899   1.111       .  S
C1703      H1709   1.110       .  S
C1706      H1710   1.110       .  S
H1712      C1898   1.111       .  S
C1713      C1714   1.405       .  A
C1713      C1718   1.402   1_565  A
C1713      H1720   1.085       .  S
C1714      C1715   1.415       .  A
C1715      C1716   1.401   1_565  A
C1715      C1722   1.508       .  S
C1716      C1717   1.404       .  A
C1716      H1721   1.085       .  S
C1717      C1718   1.416       .  A
C1718      C1719   1.508       .  S
C1719      H1915   1.111       .  S
C1719      H1724   1.111       .  S
C1719      H1725   1.107       .  S
C1722      H1726   1.107       .  S
C1722      H1727   1.111       .  S
H1728      C1914   1.110       .  S
C1729      C1730   1.414       .  A
C1729      C1844   1.513       .  S
C1730      C1731   1.404       .  A
C1730      H1735   1.072       .  S
C1731      C1751   1.537       .  S
C1732      C1733   1.434   1_554  A
C1732      H1736   1.078       .  S
C1733      C1734   1.407       .  A
C1733      C1749   1.537       .  S
C1734      H1737   1.076       .  S
C1738      C1739   1.403       .  A
C1738      C1743   1.401       .  A
C1738      C1906   1.483       .  S
C1739      C1740   1.408       .  A
C1739      H1744   1.078       .  S
C1740      C1741   1.438       .  A
C1740      C1758   1.542       .  S
C1741      C1742   1.436       .  A
C1741      H1745   1.075       .  S
C1742      C1743   1.404       .  A
C1742      C1760   1.534       .  S
C1743      H1746   1.081       .  S
C1747      C1748   1.404       .  A
C1747      C1752   1.404       .  A
C1747      C1909   1.484       .  S
C1748      C1749   1.406       .  A
C1748      H1753   1.081       .  S
C1749      C1750   1.438       .  A
C1750      C1751   1.439       .  A
C1750      H1754   1.079       .  S
C1751      C1752   1.405       .  A
C1752      H1755   1.082       .  S
C1756      C1761   1.409       .  A
C1756      C1765   1.507       .  S
C1757      C1758   1.410       .  A
C1757      H1762   1.072       .  S
C1759      C1760   1.431       .  A
C1759      H1763   1.075       .  S
C1760      C1761   1.404       .  A
C1761      H1764   1.075       .  S
C1765      C1770   1.419       .  A
C1766      C1767   1.409       .  A
C1766      H1771   1.081       .  S
C1767      C1782   1.459       .  S
C1768      C1769   1.372       .  A
C1768      H1772   1.086       .  S
C1769      C1770   1.401       .  A
C1769      C1777   1.449       .  S
C1770      H1773   1.078       .  S
O1774      C1777   1.266       .  A
O1774     Cd1779   2.412       .  S
C1775      C1804   1.465       .  S
C1775      O1784   1.266       .  A
C1775      O1780   1.267       .  A
O1776      C1782   1.271       .  A
O1776     Cd1779   2.326       .  S
C1777      O1785   1.266       .  A
C1778      C1799   1.464       .  S
C1778      O1783   1.269       .  A
C1778      O1781   1.269       .  A
Cd1779     O1786   2.439       .  S
Cd1779     O1785   2.388       .  S
Cd1779     O1784   2.450       .  S
Cd1779     O1780   2.468       .  S
Cd1779     O1783   2.452       .  S
Cd1779     O1781   2.442       .  S
C1782      O1786   1.262       .  A
C1787      C1792   1.419   1_454  A
C1788      C1789   1.402       .  A
C1788      H1793   1.079       .  S
C1790      C1791   1.381   1_554  A
C1790      H1794   1.085       .  S
C1791      C1792   1.408   1_455  A
C1791      C1800   1.458       .  S
C1792      H1795   1.081       .  S
O1796      C1799   1.267       .  A
O1796     Cd1801   2.464       .  S
C1797      O1806   1.267       .  A
O1798      C1804   1.269       .  A
C1799      O1807   1.266       .  A
C1800      O1803   1.262   1_455  A
Cd1801     O1807   2.450       .  S
Cd1801     O1802   2.414       .  S
Cd1801     O1803   2.435       .  S
C1804      O1808   1.269       .  A
O1809     Cd1814   2.414       .  S
C1810      C1835   1.465       .  S
C1810      O1819   1.266       .  A
C1810      O1815   1.266       .  A
C1812      C1826   1.454       .  S
C1812      O1820   1.267       .  A
C1813      C1832   1.465       .  S
C1813      O1818   1.269       .  A
C1813      O1816   1.269       .  A
Cd1814     O1821   2.435       .  S
Cd1814     O1819   2.459       .  S
Cd1814     O1815   2.463       .  S
C1817      O1821   1.262   1_455  A
C1822      C1827   1.419       .  A
C1823      C1824   1.408       .  A
C1823      H1828   1.080       .  S
C1825      C1826   1.375       .  A
C1825      H1829   1.085       .  S
C1826      C1827   1.404       .  A
C1827      H1830   1.078       .  S
O1831      C1834   1.265       .  A
O1831     Cd1836   2.404       .  S
C1832      O1841   1.266       .  A
C1832      O1837   1.267       .  A
O1833      C1839   1.271       .  A
O1833     Cd1836   2.351       .  S
C1834      C1846   1.452       .  S
C1834      O1842   1.267       .  A
C1835      O1840   1.269       .  A
C1835      O1838   1.269       .  A
Cd1836     O1843   2.438       .  S
Cd1836     O1842   2.392       .  S
Cd1836     O1841   2.454       .  S
Cd1836     O1837   2.464       .  S
Cd1836     O1840   2.451       .  S
Cd1836     O1838   2.445       .  S
C1839      C1848   1.462       .  S
C1839      O1843   1.262       .  A
C1844      C1845   1.419       .  A
C1845      C1846   1.402       .  A
C1845      H1850   1.078       .  S
C1846      C1847   1.374       .  A
C1847      H1851   1.085       .  S
C1848      C1849   1.409       .  A
C1849      H1852   1.081       .  S
C1853      C1858   1.414       .  A
C1854      C1855   1.408       .  A
C1854      H1859   1.075       .  S
C1855      C1873   1.539       .  S
C1856      C1857   1.432   1_554  A
C1856      H1860   1.078       .  S
C1857      C1858   1.405       .  A
C1857      C1875   1.537       .  S
C1858      H1861   1.072       .  S
C1862      C1863   1.401       .  A
C1862      C1867   1.402       .  A
C1862      C1890   1.484       .  S
C1863      C1864   1.405       .  A
C1863      H1868   1.080       .  S
C1864      C1865   1.436       .  A
C1864      C1882   1.535       .  S
C1865      C1866   1.437       .  A
C1865      H1869   1.074       .  S
C1866      C1867   1.408       .  A
C1866      C1884   1.543       .  S
C1867      H1870   1.078       .  S
C1871      C1872   1.404       .  A
C1871      C1876   1.403       .  A
C1872      C1873   1.406       .  A
C1872      H1877   1.080       .  S
C1873      C1874   1.438       .  A
C1874      C1875   1.438       .  A
C1874      H1878   1.078       .  S
C1875      C1876   1.405       .  A
C1876      H1879   1.081       .  S
C1880      C1885   1.412   1_554  A
C1881      C1882   1.404       .  A
C1881      H1886   1.074       .  S
C1883      C1884   1.434       .  A
C1883      H1887   1.074       .  S
C1884      C1885   1.410       .  A
C1885      H1888   1.072       .  S
C1889      C1894   1.403       .  A
C1889      H1896   1.084       .  S
C1890      C1891   1.416       .  A
C1891      C1892   1.404       .  A
C1891      C1898   1.509       .  S
C1892      C1893   1.404       .  A
C1892      H1897   1.084       .  S
C1894      C1895   1.509       .  S
C1895      H1901   1.110       .  S
C1898      H1902   1.110       .  S
C1905      C1906   1.405       .  A
C1905      C1910   1.402   1_565  A
C1905      H1912   1.085       .  S
C1906      C1907   1.415       .  A
C1907      C1908   1.401   1_565  A
C1907      C1914   1.508       .  S
C1908      C1909   1.404       .  A
C1908      H1913   1.085       .  S
C1909      C1910   1.416       .  A
C1910      C1911   1.508       .  S
C1911      H1916   1.111       .  S
C1911      H1917   1.107       .  S
C1914      H1918   1.107       .  S
C1914      H1919   1.111       .  S
