geometry optimzed in LAMMPS
_audit_creation_date              2020-11-30 
_audit_creation_method            'lammps2cif' 
_symmetry_space_group_name_H-M    'P1' 
_symmetry_Int_Tables_number       1 
_symmetry_cell_setting            triclinic 
loop_ 
_symmetry_equiv_pos_as_xyz 
  x,y,z 
_cell_length_a                    27.87160059 
_cell_length_b                    27.873724857977322 
_cell_length_c                    26.92158828761738 
_cell_angle_alpha                 90.00182238479465 
_cell_angle_beta                  90.03606197096909 
_cell_angle_gamma                 120.00166949495275 
loop_ 
_atom_site_label 
_atom_site_type_symbol 
_atom_site_fract_x 
_atom_site_fract_y 
_atom_site_fract_z 
_atom_site_charge 
O1          O  0.24184648  0.12656453  0.31474578    -0.83700
C2          C  0.42375763  0.16198436  0.43760077     0.95700
O3          O  0.38943577  0.11935821  0.41442985    -0.72800
O4          O  0.28194055  0.07368579  0.42967747    -0.76400
Al5        Al  0.32860663  0.09973641  0.37195003     1.49000
C6          C  0.23882980  0.07663443  0.43751212     0.90900
O7          O  0.29235497  0.21847069  0.42974944    -0.82600
O8          O  0.38531881  0.25862174  0.31486099    -0.76200
Al9        Al  0.27172933  0.17183735  0.37196667     1.90100
O10         O  0.38105525  0.26989546  0.41450857    -0.75200
O11         O  0.43571943  0.20200289  0.32882221    -0.75100
O12         O  0.42670357  0.20804553  0.42979946    -0.81300
O13         O  0.37392531  0.11517766  0.31477870    -0.78900
O14         O  0.33368240  0.16676107  0.37209562    -1.15100
O15         O  0.26690727  0.06478101  0.32869166    -0.74300
C16         C  0.23773894  0.08025680  0.30583980     0.96500
C17         C  0.33841371  0.26158538  0.43761886     0.92900
Al18       Al  0.40071330  0.22871047  0.37204621     1.55600
O19         O  0.23052115  0.11097324  0.41438714    -0.78900
C20         C  0.42025258  0.15738083  0.30593438     0.97000
C21         C  0.34311945  0.26274602  0.30596488     0.91900
O22         O  0.29847528  0.23356529  0.32877745    -0.84200
C23         C  0.34383454  0.30552716  0.47150602     0.78400
N24         N  0.39280432  0.35433303  0.47230869    -0.79900
C25         C  0.39836165  0.39808573  0.99894849     0.80800
N26         N  0.35462607  0.39254837  0.02558145    -0.79900
C27         C  0.30582038  0.34357354  0.02636662     0.80900
N28         N  0.30026075  0.29998333  0.99892976    -0.81600
C29         C  0.00035132  0.04904825  0.49888639     0.78400
N30         N  0.45162118  0.50007756  0.49892513    -0.79900
C31         C  0.45138696  0.45111497  0.49893256     0.80800
N32         N  0.00036289  0.45136478  0.49888996    -0.79900
C33         C  0.04933315  0.50009642  0.49884187     0.80900
N34         N  0.04908611  0.04881794  0.49884521    -0.81600
C35         C  0.03842722  0.19463024  0.02628067     0.78400
N36         N  0.00035522  0.20015668  0.49887449    -0.79900
C37         C  0.46227951  0.15655605  0.47147157     0.80800
N38         N  0.46210318  0.10758331  0.47226357    -0.79900
C39         C  0.00034676  0.10206268  0.49888488     0.80900
N40         N  0.03859463  0.14583011  0.02549942    -0.81600
C41         C  0.15688681  0.46206046  0.02624852     0.78400
N42         N  0.20045881  0.50008494  0.49881851    -0.79900
C43         C  0.19489804  0.03811812  0.47138621     0.80800
N44         N  0.14609513  0.03829494  0.47218194    -0.79900
C45         C  0.10236350  0.50010130  0.49882287     0.80900
N46         N  0.10792192  0.46190520  0.02545644    -0.81600
O47         O  0.07398942  0.28168336  0.06796554    -0.83700
C48         C  0.26297633  0.34286475  0.19190980     0.95700
O49         O  0.23378588  0.29821302  0.16907518    -0.72800
O50         O  0.12676184  0.24158645  0.18294924    -0.76400
Al51       Al  0.17210398  0.27148289  0.12579665     1.49000
C52         C  0.08044710  0.23748363  0.19181185     0.90900
O53         O  0.11539015  0.37368769  0.18286849    -0.82600
O54         O  0.20836556  0.42649702  0.06802183    -0.76200
Al55       Al  0.09999639  0.32835936  0.12570196     1.90100
O56         O  0.20225255  0.43544382  0.16899736    -0.75200
O57         O  0.27018411  0.38081479  0.08334631    -0.75100
O58         O  0.25888815  0.38507226  0.18299000    -0.80700
O59         O  0.21879036  0.29209978  0.06808593    -0.78900
O60         O  0.16703004  0.33343686  0.12565476    -1.15100
O61         O  0.11129448  0.23029067  0.08329693    -0.74300
C62         C  0.07695409  0.23858224  0.06014612     0.96500
C63         C  0.15759707  0.41999688  0.19178498     0.92900
Al64       Al  0.22898878  0.40046723  0.12578718     1.55600
O65         O  0.06499507  0.26666393  0.16894711    -0.78900
C66         C  0.26188748  0.33816240  0.06023652     0.97000
C67         C  0.16230313  0.42353475  0.06013141     0.91900
O68         O  0.11965296  0.38918328  0.08321889    -0.84200
C69         C  0.34773392  0.30654227  0.27292156     0.78400
N70         N  0.39637562  0.35493636  0.27197512    -0.79900
C71         C  0.39992724  0.39970484  0.24899797     0.80800
N72         N  0.35514442  0.39612354  0.22599654    -0.79900
C73         C  0.30676019  0.34748400  0.22499900     0.80900
N74         N  0.30270558  0.30246772  0.24894320    -0.81600
C75         C  0.45184351  0.45162059  0.24896777     0.78400
N76         N  0.00035032  0.45155367  0.24888765    -0.79900
C77         C  0.04886736  0.00012826  0.24879274     0.80800
N78         N  0.04893438  0.04870240  0.24880053    -0.79900
C79         C  0.00035816  0.04863473  0.24887490     0.80900
N80         N  0.45178300  0.00012413  0.24894564    -0.81600
C81         C  0.04126862  0.19370103  0.22487922     0.78400
N82         N  0.00034696  0.19778416  0.24887184    -0.79900
C83         C  0.45942927  0.15277808  0.27286494     0.80800
N84         N  0.45918682  0.10414309  0.27188876    -0.79900
C85         C  0.00035537  0.10055603  0.24887485     0.80900
N86         N  0.04152044  0.14531259  0.22585886    -0.81600
C87         C  0.15297883  0.45917983  0.22482631     0.78400
N88         N  0.10433164  0.45892195  0.22578239    -0.79900
C89         C  0.10078609  0.00013366  0.24876306     0.80800
N90         N  0.14556817  0.04134043  0.27176182    -0.79900
C91         C  0.19395749  0.04109467  0.27274874     0.80900
N92         N  0.19801959  0.00013919  0.24879746    -0.81600
O93         O  0.24184639  0.12656453  0.81474583    -0.83700
C94         C  0.42375776  0.16198442  0.93760071     0.95700
O95         O  0.38943573  0.11935828  0.91442998    -0.72800
O96         O  0.28194049  0.07368580  0.92967736    -0.76400
Al97       Al  0.32860667  0.09973643  0.87195004     1.49000
C98         C  0.23882975  0.07663438  0.93751216     0.90900
O99         O  0.29235510  0.21847089  0.92974944    -0.82600
O100        O  0.38531882  0.25862173  0.81486098    -0.76200
Al101      Al  0.27172938  0.17183734  0.87196671     1.90100
O102        O  0.38105535  0.26989557  0.91450850    -0.75200
O103        O  0.43571946  0.20200300  0.82882240    -0.75100
O104        O  0.42670357  0.20804548  0.92979945    -0.81300
O105        O  0.37392551  0.11517772  0.81477877    -0.78900
O106        O  0.33368245  0.16676105  0.87209548    -1.15100
O107        O  0.26690732  0.06478103  0.82869167    -0.74300
C108        C  0.23773909  0.08025687  0.80583968     0.96500
C109        C  0.33841381  0.26158537  0.93761882     0.92900
Al110      Al  0.40071333  0.22871045  0.87204623     1.55600
O111        O  0.23052121  0.11097334  0.91438716    -0.78900
C112        C  0.42025255  0.15738096  0.80593439     0.97000
C113        C  0.34311944  0.26274595  0.80596486     0.91900
O114        O  0.29847528  0.23356523  0.82877748    -0.84200
C115        C  0.34383462  0.30552710  0.97150596     0.78400
N116        N  0.39280425  0.35433305  0.97230865    -0.79900
C117        C  0.39836161  0.39808568  0.49894852     0.80800
N118        N  0.35462603  0.39254828  0.52558149    -0.79900
C119        C  0.30582030  0.34357338  0.52636664     0.80900
N120        N  0.30026066  0.29998316  0.49892978    -0.81600
C121        C  0.00035124  0.04904808  0.99888629     0.78400
N122        N  0.45162121  0.50007750  0.99892512    -0.79900
C123        C  0.45138693  0.45111495  0.99893254     0.80800
N124        N  0.00036287  0.45136479  0.99888997    -0.79900
C125        C  0.04933312  0.50009652  0.99884187     0.80900
N126        N  0.04908604  0.04881796  0.99884521    -0.81600
C127        C  0.03842720  0.19463014  0.52628069     0.78400
N128        N  0.00035519  0.20015665  0.99887447    -0.79900
C129        C  0.46227956  0.15655609  0.97147160     0.80800
N130        N  0.46210327  0.10758335  0.97226362    -0.79900
C131        C  0.00034675  0.10206255  0.99888483     0.80900
N132        N  0.03859463  0.14583011  0.52549946    -0.81600
C133        C  0.15688678  0.46206042  0.52624854     0.78400
N134        N  0.20045884  0.50008487  0.99881847    -0.79900
C135        C  0.19489802  0.03811815  0.97138633     0.80800
N136        N  0.14609520  0.03829501  0.97218191    -0.79900
C137        C  0.10236350  0.50010130  0.99882281     0.80900
N138        N  0.10792198  0.46190517  0.52545643    -0.81600
O139        O  0.07398937  0.28168343  0.56796546    -0.83700
C140        C  0.26297632  0.34286466  0.69190977     0.95700
O141        O  0.23378573  0.29821285  0.66907526    -0.72800
O142        O  0.12676175  0.24158648  0.68294923    -0.76400
Al143      Al  0.17210390  0.27148281  0.62579670     1.49000
C144        C  0.08044712  0.23748378  0.69181193     0.90900
O145        O  0.11539016  0.37368767  0.68286847    -0.82600
O146        O  0.20836558  0.42649700  0.56802187    -0.76200
Al147      Al  0.09999639  0.32835943  0.62570193     1.90100
O148        O  0.20225255  0.43544367  0.66899735    -0.75200
O149        O  0.27018400  0.38081477  0.58334637    -0.75100
O150        O  0.25888801  0.38507215  0.68298995    -0.80700
O151        O  0.21879021  0.29209966  0.56808598    -0.78900
O152        O  0.16703009  0.33343691  0.62565477    -1.15100
O153        O  0.11129445  0.23029071  0.58329703    -0.74300
C154        C  0.07695400  0.23858218  0.56014615     0.96500
C155        C  0.15759705  0.41999694  0.69178498     0.92900
Al156      Al  0.22898880  0.40046724  0.62578722     1.55600
O157        O  0.06499490  0.26666387  0.66894704    -0.78900
C158        C  0.26188744  0.33816229  0.56023659     0.97000
C159        C  0.16230316  0.42353468  0.56013141     0.91900
O160        O  0.11965300  0.38918327  0.58321894    -0.84200
C161        C  0.34773396  0.30654227  0.77292154     0.78400
N162        N  0.39637566  0.35493635  0.77197511    -0.79900
C163        C  0.39992709  0.39970476  0.74899802     0.80800
N164        N  0.35514436  0.39612343  0.72599652    -0.79900
C165        C  0.30676017  0.34748398  0.72499901     0.80900
N166        N  0.30270556  0.30246761  0.74894315    -0.81600
C167        C  0.45184340  0.45162041  0.74896777     0.78400
N168        N  0.00035024  0.45155366  0.74888765    -0.79900
C169        C  0.04886735  0.00012822  0.74879271     0.80800
N170        N  0.04893430  0.04870239  0.74880061    -0.79900
C171        C  0.00035820  0.04863479  0.74887488     0.80900
N172        N  0.45178307  0.00012427  0.74894575    -0.81600
C173        C  0.04126863  0.19370104  0.72487921     0.78400
N174        N  0.00034690  0.19778405  0.74887186    -0.79900
C175        C  0.45942917  0.15277807  0.77286496     0.80800
N176        N  0.45918688  0.10414314  0.77188875    -0.79900
C177        C  0.00035553  0.10055617  0.74887500     0.80900
N178        N  0.04152044  0.14531258  0.72585883    -0.81600
C179        C  0.15297875  0.45917992  0.72482631     0.78400
N180        N  0.10433160  0.45892198  0.72578239    -0.79900
C181        C  0.10078615  0.00013377  0.74876305     0.80800
N182        N  0.14556826  0.04134048  0.77176182    -0.79900
C183        C  0.19395753  0.04109465  0.77274879     0.80900
N184        N  0.19801961  0.00013921  0.74879738    -0.81600
O185        O  0.24183400  0.62656555  0.31474270    -0.83700
C186        C  0.42375767  0.66198362  0.43758128     0.95700
O187        O  0.38943376  0.61935748  0.41441135    -0.72800
O188        O  0.28193632  0.57368119  0.42966124    -0.76400
Al189      Al  0.32860344  0.59973832  0.37193234     1.49000
C190        C  0.23882941  0.57663424  0.43750574     0.90900
O191        O  0.29235825  0.71847737  0.42973607    -0.82600
O192        O  0.38531589  0.75862588  0.31484883    -0.76200
Al193      Al  0.27172674  0.67184105  0.37195815     1.90100
O194        O  0.38105891  0.76989786  0.41449578    -0.75200
O195        O  0.43571587  0.70200725  0.32880119    -0.75100
O196        O  0.42670509  0.70804532  0.42977964    -0.81300
O197        O  0.37392130  0.61518251  0.31475864    -0.78900
O198        O  0.33367976  0.66676346  0.37208153    -1.15100
O199        O  0.26690417  0.56478710  0.32867583    -0.74300
C200        C  0.23772945  0.58026058  0.30583221     0.96500
C201        C  0.33841779  0.76158988  0.43760515     0.92900
Al202      Al  0.40071213  0.72871253  0.37203017     1.55600
O203        O  0.23052260  0.61097838  0.41438645    -0.78900
C204        C  0.42024745  0.65738615  0.30591164     0.97000
C205        C  0.34311646  0.76274885  0.30595038     0.91900
O206        O  0.29847102  0.73356731  0.32876222    -0.84200
C207        C  0.34383765  0.80553075  0.47149088     0.78400
N208        N  0.39280726  0.85433627  0.47229572    -0.79900
C209        C  0.39836187  0.89808807  0.99893498     0.80800
N210        N  0.35462410  0.89255007  0.02556436    -0.79900
C211        C  0.30581848  0.84357517  0.02634668     0.80900
N212        N  0.30026144  0.79998589  0.99891096    -0.81600
C213        C  0.00035021  0.54904757  0.49887951     0.78400
N214        N  0.45162199  0.00007873  0.49892504    -0.79900
C215        C  0.45138717  0.95111614  0.49892442     0.80800
N216        N  0.00036234  0.95136499  0.49888082    -0.79900
C217        C  0.04933257  0.00009628  0.49883935     0.80900
N218        N  0.04908544  0.54881775  0.49883969    -0.81600
C219        C  0.03842471  0.69463216  0.02626558     0.78400
N220        N  0.00035387  0.70015734  0.49885636    -0.79900
C221        C  0.46227907  0.65655549  0.47145357     0.80800
N222        N  0.46210298  0.60758260  0.47224818    -0.79900
C223        C  0.00034541  0.60206273  0.49887269     0.80900
N224        N  0.03859212  0.64583185  0.02548687    -0.81600
C225        C  0.15688366  0.96205786  0.02624202     0.78400
N226        N  0.20045658  0.00008430  0.49881626    -0.79900
C227        C  0.19489888  0.53811707  0.47138464     0.80800
N228        N  0.14609555  0.53829317  0.47218152    -0.79900
C229        C  0.10236168  0.00010039  0.49881972     0.80900
N230        N  0.10791872  0.96190205  0.02545046    -0.81600
O231        O  0.07399118  0.78168980  0.06794887    -0.83700
C232        C  0.26298386  0.84286959  0.19188592     0.95700
O233        O  0.23379147  0.79821725  0.16905223    -0.72800
O234        O  0.12676617  0.74159108  0.18293556    -0.76400
Al235      Al  0.17210489  0.77148504  0.12577877     1.49000
C236        C  0.08044966  0.73748632  0.19179525     0.90900
O237        O  0.11540075  0.87368785  0.18286206    -0.82600
O238        O  0.20836340  0.92649197  0.06800330    -0.76200
Al239      Al  0.10000031  0.82836275  0.12569011     1.90100
O240        O  0.20225888  0.93544894  0.16897867    -0.75200
O241        O  0.27018335  0.88081470  0.08332687    -0.75100
O242        O  0.25889419  0.88507674  0.18296877    -0.80700
O243        O  0.21878646  0.79210052  0.06806408    -0.78900
O244        O  0.16703269  0.83343903  0.12563852    -1.15100
O245        O  0.11129092  0.73029255  0.08328297    -0.74300
C246        C  0.07695215  0.73858581  0.06013089     0.96500
C247        C  0.15760770  0.91999927  0.19177488     0.92900
Al248      Al  0.22899140  0.90046888  0.12576767     1.55600
O249        O  0.06499768  0.76666490  0.16892856    -0.78900
C250        C  0.26188496  0.83816275  0.06021564     0.97000
C251        C  0.16230174  0.92353364  0.06012124     0.91900
O252        O  0.11965490  0.88918811  0.08321470    -0.84200
C253        C  0.34773452  0.80654430  0.27290293     0.78400
N254        N  0.39637999  0.85493492  0.27195158    -0.79900
C255        C  0.39993796  0.89970306  0.24896804     0.80800
N256        N  0.35515714  0.89612485  0.22596495    -0.79900
C257        C  0.30676912  0.84748823  0.22497244     0.80900
N258        N  0.30270845  0.80247283  0.24892318    -0.81600
C259        C  0.45185506  0.95161927  0.24894634     0.78400
N260        N  0.00036210  0.95155249  0.24886763    -0.79900
C261        C  0.04885528  0.50012938  0.24879326     0.80800
N262        N  0.04892216  0.54870338  0.24878265    -0.79900
C263        C  0.00034597  0.54863542  0.24885778     0.80900
N264        N  0.45177100  0.50012510  0.24894839    -0.81600
C265        C  0.04126691  0.69370331  0.22485962     0.78400
N266        N  0.00034554  0.69778912  0.24885071    -0.79900
C267        C  0.45942236  0.65278282  0.27283944     0.80800
N268        N  0.45917512  0.60414584  0.27186040    -0.79900
C269        C  0.00034292  0.60055602  0.24884850     0.80900
N270        N  0.04151297  0.64531218  0.22583648    -0.81600
C271        C  0.15299209  0.95918114  0.22482126     0.78400
N272        N  0.10434542  0.95892385  0.22577809    -0.79900
C273        C  0.10077372  0.50013497  0.24876295     0.80800
N274        N  0.14555691  0.54134445  0.27175796    -0.79900
C275        C  0.19394603  0.54109844  0.27274477     0.80900
N276        N  0.19800665  0.50014039  0.24879847    -0.81600
O277        O  0.24183395  0.62656551  0.81474270    -0.83700
C278        C  0.42375765  0.66198358  0.93758131     0.95700
O279        O  0.38943387  0.61935750  0.91441137    -0.72800
O280        O  0.28193615  0.57368100  0.92966130    -0.76400
Al281      Al  0.32860348  0.59973839  0.87193237     1.49000
C282        C  0.23882926  0.57663415  0.93750572     0.90900
O283        O  0.29235829  0.71847731  0.92973599    -0.82600
O284        O  0.38531598  0.75862605  0.81484888    -0.76200
Al285      Al  0.27172680  0.67184112  0.87195810     1.90100
O286        O  0.38105898  0.76989788  0.91449594    -0.75200
O287        O  0.43571583  0.70200730  0.82880110    -0.75100
O288        O  0.42670519  0.70804540  0.92977960    -0.81300
O289        O  0.37392122  0.61518259  0.81475863    -0.78900
O290        O  0.33367985  0.66676364  0.87208147    -1.15100
O291        O  0.26690429  0.56478719  0.82867576    -0.74300
C292        C  0.23772941  0.58026051  0.80583225     0.96500
C293        C  0.33841785  0.76158984  0.93760522     0.92900
Al294      Al  0.40071230  0.72871270  0.87203009     1.55600
O295        O  0.23052271  0.61097853  0.91438645    -0.78900
C296        C  0.42024752  0.65738609  0.80591174     0.97000
C297        C  0.34311638  0.76274883  0.80595031     0.91900
O298        O  0.29847092  0.73356720  0.82876227    -0.84200
C299        C  0.34383772  0.80553064  0.97149107     0.78400
N300        N  0.39280735  0.85433634  0.97229575    -0.79900
C301        C  0.39836198  0.89808801  0.49893496     0.80800
N302        N  0.35462408  0.89255008  0.52556431    -0.79900
C303        C  0.30581837  0.84357525  0.52634665     0.80900
N304        N  0.30026140  0.79998600  0.49891095    -0.81600
C305        C  0.00035019  0.54904759  0.99887948     0.78400
N306        N  0.45162187  0.00007875  0.99892499    -0.79900
C307        C  0.45138713  0.95111616  0.99892449     0.80800
N308        N  0.00036245  0.95136510  0.99888083    -0.79900
C309        C  0.04933265  0.00009639  0.99883938     0.80900
N310        N  0.04908552  0.54881792  0.99883970    -0.81600
C311        C  0.03842474  0.69463210  0.52626558     0.78400
N312        N  0.00035375  0.70015725  0.99885634    -0.79900
C313        C  0.46227914  0.65655550  0.97145349     0.80800
N314        N  0.46210296  0.60758252  0.97224815    -0.79900
C315        C  0.00034550  0.60206284  0.99887266     0.80900
N316        N  0.03859215  0.64583180  0.52548685    -0.81600
C317        C  0.15688368  0.96205777  0.52624197     0.78400
N318        N  0.20045642  0.00008420  0.99881628    -0.79900
C319        C  0.19489887  0.53811697  0.97138466     0.80800
N320        N  0.14609556  0.53829312  0.97218150    -0.79900
C321        C  0.10236173  0.00010053  0.99881974     0.80900
N322        N  0.10791875  0.96190211  0.52545041    -0.81600
O323        O  0.07399122  0.78168974  0.56794885    -0.83700
C324        C  0.26298391  0.84286964  0.69188590     0.95700
O325        O  0.23379144  0.79821740  0.66905220    -0.72800
O326        O  0.12676616  0.74159099  0.68293554    -0.76400
Al327      Al  0.17210501  0.77148522  0.62577875     1.49000
C328        C  0.08044962  0.73748620  0.69179528     0.90900
O329        O  0.11540069  0.87368770  0.68286196    -0.82600
O330        O  0.20836345  0.92649193  0.56800327    -0.76200
Al331      Al  0.10000031  0.82836271  0.62569012     1.90100
O332        O  0.20225892  0.93544904  0.66897860    -0.75200
O333        O  0.27018344  0.88081478  0.58332690    -0.75100
O334        O  0.25889404  0.88507678  0.68296874    -0.80700
O335        O  0.21878659  0.79210063  0.56806406    -0.78900
O336        O  0.16703287  0.83343927  0.62563846    -1.15100
O337        O  0.11129096  0.73029249  0.58328292    -0.74300
C338        C  0.07695217  0.73858578  0.56013086     0.96500
C339        C  0.15760768  0.91999923  0.69177489     0.92900
Al340      Al  0.22899160  0.90046910  0.62576764     1.55600
O341        O  0.06499767  0.76666482  0.66892866    -0.78900
C342        C  0.26188488  0.83816286  0.56021562     0.97000
C343        C  0.16230173  0.92353356  0.56012125     0.91900
O344        O  0.11965482  0.88918808  0.58321467    -0.84200
C345        C  0.34773458  0.80654446  0.77290293     0.78400
N346        N  0.39638005  0.85493495  0.77195157    -0.79900
C347        C  0.39993790  0.89970319  0.74896809     0.80800
N348        N  0.35515709  0.89612501  0.72596497    -0.79900
C349        C  0.30676924  0.84748832  0.72497247     0.80900
N350        N  0.30270852  0.80247283  0.74892327    -0.81600
C351        C  0.45185510  0.95161923  0.74894636     0.78400
N352        N  0.00036215  0.95155253  0.74886776    -0.79900
C353        C  0.04885515  0.50012929  0.74879319     0.80800
N354        N  0.04892196  0.54870329  0.74878267    -0.79900
C355        C  0.00034583  0.54863543  0.74885784     0.80900
N356        N  0.45177099  0.50012501  0.74894838    -0.81600
C357        C  0.04126686  0.69370328  0.72485959     0.78400
N358        N  0.00034553  0.69778928  0.74885071    -0.79900
C359        C  0.45942245  0.65278290  0.77283942     0.80800
N360        N  0.45917523  0.60414598  0.77186037    -0.79900
C361        C  0.00034297  0.60055616  0.74884855     0.80900
N362        N  0.04151298  0.64531213  0.72583646    -0.81600
C363        C  0.15299213  0.95918128  0.72482118     0.78400
N364        N  0.10434541  0.95892381  0.72577813    -0.79900
C365        C  0.10077361  0.50013491  0.74876295     0.80800
N366        N  0.14555684  0.54134440  0.77175800    -0.79900
C367        C  0.19394603  0.54109838  0.77274473     0.80900
N368        N  0.19800666  0.50014031  0.74879842    -0.81600
O369        O  0.74184654  0.12656456  0.31474577    -0.83700
C370        C  0.92375757  0.16198431  0.43760083     0.95700
O371        O  0.88943580  0.11935820  0.41442981    -0.72800
O372        O  0.78194055  0.07368579  0.42967747    -0.76400
Al373      Al  0.82860663  0.09973640  0.37195002     1.49000
C374        C  0.73882980  0.07663442  0.43751212     0.90900
O375        O  0.79235500  0.21847069  0.42974945    -0.82600
O376        O  0.88531895  0.25862175  0.31486097    -0.76200
Al377      Al  0.77172932  0.17183737  0.37196666     1.90100
O378        O  0.88105527  0.26989550  0.41450856    -0.75200
O379        O  0.93571954  0.20200291  0.32882235    -0.75100
O380        O  0.92670361  0.20804550  0.42979954    -0.81300
O381        O  0.87392539  0.11517770  0.31477875    -0.78900
O382        O  0.83368240  0.16676107  0.37209558    -1.15100
O383        O  0.76690729  0.06478100  0.32869166    -0.74300
C384        C  0.73773895  0.08025682  0.30583980     0.96500
C385        C  0.83841373  0.26158539  0.43761886     0.92900
Al386      Al  0.90071337  0.22871047  0.37204627     1.55600
O387        O  0.73052117  0.11097326  0.41438714    -0.78900
C388        C  0.92025258  0.15738089  0.30593433     0.97000
C389        C  0.84311953  0.26274604  0.30596483     0.91900
O390        O  0.79847536  0.23356531  0.32877744    -0.84200
C391        C  0.84383454  0.30552717  0.47150601     0.78400
N392        N  0.89280432  0.35433305  0.47230868    -0.79900
C393        C  0.89836164  0.39808573  0.99894850     0.80800
N394        N  0.85462606  0.39254838  0.02558146    -0.79900
C395        C  0.80582038  0.34357353  0.02636664     0.80900
N396        N  0.80026074  0.29998332  0.99892977    -0.81600
C397        C  0.50035130  0.04904826  0.49888638     0.78400
N398        N  0.95162119  0.50007756  0.49892513    -0.79900
C399        C  0.95138696  0.45111497  0.49893257     0.80800
N400        N  0.50036289  0.45136477  0.49888997    -0.79900
C401        C  0.54933315  0.50009643  0.49884186     0.80900
N402        N  0.54908610  0.04881795  0.49884520    -0.81600
C403        C  0.53842722  0.19463023  0.02628069     0.78400
N404        N  0.50035518  0.20015666  0.49887447    -0.79900
C405        C  0.96227951  0.15655606  0.47147158     0.80800
N406        N  0.96210321  0.10758333  0.47226358    -0.79900
C407        C  0.50034674  0.10206268  0.49888486     0.80900
N408        N  0.53859464  0.14583011  0.02549943    -0.81600
C409        C  0.65688679  0.46206046  0.02624852     0.78400
N410        N  0.70045881  0.50008494  0.49881851    -0.79900
C411        C  0.69489803  0.03811812  0.47138620     0.80800
N412        N  0.64609512  0.03829495  0.47218194    -0.79900
C413        C  0.60236350  0.50010130  0.49882287     0.80900
N414        N  0.60792193  0.46190520  0.02545644    -0.81600
O415        O  0.57398944  0.28168337  0.06796552    -0.83700
C416        C  0.76297652  0.34286480  0.19190981     0.95700
O417        O  0.73378583  0.29821301  0.16907528    -0.72800
O418        O  0.62676186  0.24158651  0.18294929    -0.76400
Al419      Al  0.67210396  0.27148290  0.12579676     1.49000
C420        C  0.58044705  0.23748362  0.19181191     0.90900
O421        O  0.61539017  0.37368770  0.18286848    -0.82600
O422        O  0.70836557  0.42649703  0.06802183    -0.76200
Al423      Al  0.59999642  0.32835939  0.12570195     1.90100
O424        O  0.70225255  0.43544381  0.16899739    -0.75200
O425        O  0.77018411  0.38081476  0.08334632    -0.75100
O426        O  0.75888815  0.38507228  0.18299004    -0.80700
O427        O  0.71879038  0.29209975  0.06808599    -0.78900
O428        O  0.66703003  0.33343686  0.12565478    -1.15100
O429        O  0.61129447  0.23029062  0.08329699    -0.74300
C430        C  0.57695409  0.23858222  0.06014615     0.96500
C431        C  0.65759708  0.41999688  0.19178500     0.92900
Al432      Al  0.72898875  0.40046720  0.12578721     1.55600
O433        O  0.56499507  0.26666396  0.16894708    -0.78900
C434        C  0.76188749  0.33816237  0.06023655     0.97000
C435        C  0.66230316  0.42353478  0.06013142     0.91900
O436        O  0.61965306  0.38918327  0.08321892    -0.84200
C437        C  0.84773397  0.30654229  0.27292152     0.78400
N438        N  0.89637577  0.35493632  0.27197512    -0.79900
C439        C  0.89992724  0.39970482  0.24899798     0.80800
N440        N  0.85514441  0.39612351  0.22599654    -0.79900
C441        C  0.80676028  0.34748400  0.22499908     0.80900
N442        N  0.80270563  0.30246771  0.24894317    -0.81600
C443        C  0.95184352  0.45162059  0.24896777     0.78400
N444        N  0.50035030  0.45155366  0.24888765    -0.79900
C445        C  0.54886741  0.00012826  0.24879275     0.80800
N446        N  0.54893435  0.04870238  0.24880054    -0.79900
C447        C  0.50035813  0.04863475  0.24887490     0.80900
N448        N  0.95178300  0.00012415  0.24894564    -0.81600
C449        C  0.54126851  0.19370093  0.22487920     0.78400
N450        N  0.50034693  0.19778416  0.24887181    -0.79900
C451        C  0.95942933  0.15277810  0.27286497     0.80800
N452        N  0.95918686  0.10414310  0.27188876    -0.79900
C453        C  0.50035536  0.10055604  0.24887484     0.80900
N454        N  0.54152043  0.14531259  0.22585889    -0.81600
C455        C  0.65297882  0.45917983  0.22482630     0.78400
N456        N  0.60433163  0.45892193  0.22578238    -0.79900
C457        C  0.60078617  0.00013365  0.24876306     0.80800
N458        N  0.64556817  0.04134045  0.27176183    -0.79900
C459        C  0.69395748  0.04109469  0.27274875     0.80900
N460        N  0.69801959  0.00013919  0.24879747    -0.81600
O461        O  0.74184638  0.12656450  0.81474584    -0.83700
C462        C  0.92375773  0.16198439  0.93760070     0.95700
O463        O  0.88943570  0.11935822  0.91442998    -0.72800
O464        O  0.78194045  0.07368575  0.92967736    -0.76400
Al465      Al  0.82860666  0.09973646  0.87195003     1.49000
C466        C  0.73882973  0.07663435  0.93751217     0.90900
O467        O  0.79235506  0.21847085  0.92974945    -0.82600
O468        O  0.88531879  0.25862168  0.81486098    -0.76200
Al469      Al  0.77172937  0.17183734  0.87196671     1.90100
O470        O  0.88105531  0.26989552  0.91450850    -0.75200
O471        O  0.93571941  0.20200295  0.82882242    -0.75100
O472        O  0.92670352  0.20804544  0.92979943    -0.81300
O473        O  0.87392551  0.11517767  0.81477877    -0.78900
O474        O  0.83368252  0.16676119  0.87209548    -1.15100
O475        O  0.76690729  0.06478099  0.82869166    -0.74300
C476        C  0.73773907  0.08025684  0.80583968     0.96500
C477        C  0.83841378  0.26158533  0.93761882     0.92900
Al478      Al  0.90071336  0.22871049  0.87204623     1.55600
O479        O  0.73052119  0.11097331  0.91438715    -0.78900
C480        C  0.92025253  0.15738094  0.80593438     0.97000
C481        C  0.84311942  0.26274592  0.80596487     0.91900
O482        O  0.79847525  0.23356520  0.82877747    -0.84200
C483        C  0.84383460  0.30552709  0.97150595     0.78400
N484        N  0.89280422  0.35433304  0.97230865    -0.79900
C485        C  0.89836161  0.39808569  0.49894852     0.80800
N486        N  0.85462602  0.39254828  0.52558148    -0.79900
C487        C  0.80582030  0.34357338  0.52636663     0.80900
N488        N  0.80026065  0.29998316  0.49892977    -0.81600
C489        C  0.50035124  0.04904808  0.99888629     0.78400
N490        N  0.95162118  0.50007750  0.99892512    -0.79900
C491        C  0.95138691  0.45111496  0.99893255     0.80800
N492        N  0.50036287  0.45136478  0.99888997    -0.79900
C493        C  0.54933311  0.50009649  0.99884191     0.80900
N494        N  0.54908604  0.04881796  0.99884521    -0.81600
C495        C  0.53842717  0.19463015  0.52628067     0.78400
N496        N  0.50035519  0.20015665  0.99887448    -0.79900
C497        C  0.96227954  0.15655608  0.97147160     0.80800
N498        N  0.96210325  0.10758335  0.97226361    -0.79900
C499        C  0.50034676  0.10206255  0.99888484     0.80900
N500        N  0.53859462  0.14583011  0.52549945    -0.81600
C501        C  0.65688677  0.46206043  0.52624854     0.78400
N502        N  0.70045883  0.50008488  0.99881848    -0.79900
C503        C  0.69489801  0.03811815  0.97138634     0.80800
N504        N  0.64609519  0.03829501  0.97218191    -0.79900
C505        C  0.60236347  0.50010129  0.99882284     0.80900
N506        N  0.60792198  0.46190518  0.52545643    -0.81600
O507        O  0.57398937  0.28168344  0.56796546    -0.83700
C508        C  0.76297631  0.34286467  0.69190977     0.95700
O509        O  0.73378572  0.29821285  0.66907526    -0.72800
O510        O  0.62676174  0.24158648  0.68294923    -0.76400
Al511      Al  0.67210389  0.27148281  0.62579669     1.49000
C512        C  0.58044711  0.23748378  0.69181193     0.90900
O513        O  0.61539015  0.37368767  0.68286848    -0.82600
O514        O  0.70836557  0.42649700  0.56802187    -0.76200
Al515      Al  0.59999638  0.32835943  0.62570194     1.90100
O516        O  0.70225254  0.43544367  0.66899735    -0.75200
O517        O  0.77018399  0.38081477  0.58334637    -0.75100
O518        O  0.75888800  0.38507216  0.68298995    -0.80700
O519        O  0.71879021  0.29209966  0.56808598    -0.78900
O520        O  0.66703009  0.33343691  0.62565477    -1.15100
O521        O  0.61129442  0.23029071  0.58329702    -0.74300
C522        C  0.57695398  0.23858219  0.56014614     0.96500
C523        C  0.65759704  0.41999694  0.69178498     0.92900
Al524      Al  0.72898879  0.40046724  0.62578722     1.55600
O525        O  0.56499489  0.26666387  0.66894704    -0.78900
C526        C  0.76188743  0.33816229  0.56023658     0.97000
C527        C  0.66230315  0.42353468  0.56013141     0.91900
O528        O  0.61965299  0.38918327  0.58321894    -0.84200
C529        C  0.84773395  0.30654226  0.77292156     0.78400
N530        N  0.89637566  0.35493635  0.77197511    -0.79900
C531        C  0.89992709  0.39970476  0.74899801     0.80800
N532        N  0.85514435  0.39612344  0.72599651    -0.79900
C533        C  0.80676017  0.34748398  0.72499901     0.80900
N534        N  0.80270556  0.30246761  0.74894315    -0.81600
C535        C  0.95184340  0.45162041  0.74896777     0.78400
N536        N  0.50035024  0.45155367  0.74888765    -0.79900
C537        C  0.54886734  0.00012822  0.74879272     0.80800
N538        N  0.54893430  0.04870239  0.74880061    -0.79900
C539        C  0.50035820  0.04863479  0.74887488     0.80900
N540        N  0.95178306  0.00012427  0.74894575    -0.81600
C541        C  0.54126863  0.19370104  0.72487921     0.78400
N542        N  0.50034689  0.19778405  0.74887186    -0.79900
C543        C  0.95942917  0.15277807  0.77286496     0.80800
N544        N  0.95918688  0.10414314  0.77188875    -0.79900
C545        C  0.50035553  0.10055617  0.74887500     0.80900
N546        N  0.54152044  0.14531258  0.72585882    -0.81600
C547        C  0.65297874  0.45917992  0.72482631     0.78400
N548        N  0.60433159  0.45892198  0.72578239    -0.79900
C549        C  0.60078615  0.00013377  0.74876305     0.80800
N550        N  0.64556825  0.04134048  0.77176182    -0.79900
C551        C  0.69395752  0.04109465  0.77274878     0.80900
N552        N  0.69801961  0.00013920  0.74879738    -0.81600
O553        O  0.74183400  0.62656555  0.31474271    -0.83700
C554        C  0.92375769  0.66198362  0.43758131     0.95700
O555        O  0.88943374  0.61935748  0.41441133    -0.72800
O556        O  0.78193633  0.57368120  0.42966125    -0.76400
Al557      Al  0.82860344  0.59973832  0.37193234     1.49000
C558        C  0.73882941  0.57663424  0.43750575     0.90900
O559        O  0.79235824  0.71847737  0.42973607    -0.82600
O560        O  0.88531588  0.75862589  0.31484884    -0.76200
Al561      Al  0.77172673  0.67184105  0.37195815     1.90100
O562        O  0.88105890  0.76989785  0.41449579    -0.75200
O563        O  0.93571586  0.70200726  0.32880118    -0.75100
O564        O  0.92670509  0.70804534  0.42977962    -0.81300
O565        O  0.87392128  0.61518251  0.31475863    -0.78900
O566        O  0.83367976  0.66676347  0.37208152    -1.15100
O567        O  0.76690416  0.56478710  0.32867584    -0.74300
C568        C  0.73772943  0.58026057  0.30583222     0.96500
C569        C  0.83841778  0.76158988  0.43760516     0.92900
Al570      Al  0.90071213  0.72871253  0.37203016     1.55600
O571        O  0.73052259  0.61097837  0.41438645    -0.78900
C572        C  0.92024744  0.65738615  0.30591165     0.97000
C573        C  0.84311645  0.76274885  0.30595038     0.91900
O574        O  0.79847102  0.73356731  0.32876222    -0.84200
C575        C  0.84383765  0.80553075  0.47149088     0.78400
N576        N  0.89280725  0.85433627  0.47229572    -0.79900
C577        C  0.89836187  0.89808807  0.99893498     0.80800
N578        N  0.85462410  0.89255007  0.02556436    -0.79900
C579        C  0.80581847  0.84357517  0.02634668     0.80900
N580        N  0.80026143  0.79998589  0.99891096    -0.81600
C581        C  0.50035022  0.54904757  0.49887952     0.78400
N582        N  0.95162200  0.00007873  0.49892505    -0.79900
C583        C  0.95138717  0.95111613  0.49892442     0.80800
N584        N  0.50036234  0.95136501  0.49888082    -0.79900
C585        C  0.54933256  0.00009629  0.49883936     0.80900
N586        N  0.54908542  0.54881775  0.49883969    -0.81600
C587        C  0.53842470  0.69463216  0.02626558     0.78400
N588        N  0.50035387  0.70015732  0.49885636    -0.79900
C589        C  0.96227922  0.65655553  0.47145351     0.80800
N590        N  0.96210296  0.60758259  0.47224818    -0.79900
C591        C  0.50034541  0.60206274  0.49887271     0.80900
N592        N  0.53859211  0.64583185  0.02548688    -0.81600
C593        C  0.65688366  0.96205786  0.02624201     0.78400
N594        N  0.70045658  0.00008430  0.49881625    -0.79900
C595        C  0.69489887  0.53811708  0.47138464     0.80800
N596        N  0.64609555  0.53829318  0.47218152    -0.79900
C597        C  0.60236167  0.00010040  0.49881972     0.80900
N598        N  0.60791872  0.96190206  0.02545046    -0.81600
O599        O  0.57399117  0.78168980  0.06794887    -0.83700
C600        C  0.76298385  0.84286959  0.19188592     0.95700
O601        O  0.73379145  0.79821725  0.16905223    -0.72800
O602        O  0.62676617  0.74159110  0.18293556    -0.76400
Al603      Al  0.67210489  0.77148505  0.12577877     1.49000
C604        C  0.58044966  0.73748632  0.19179524     0.90900
O605        O  0.61540075  0.87368785  0.18286206    -0.82600
O606        O  0.70836340  0.92649197  0.06800330    -0.76200
Al607      Al  0.60000030  0.82836275  0.12569011     1.90100
O608        O  0.70225889  0.93544896  0.16897867    -0.75200
O609        O  0.77018334  0.88081470  0.08332687    -0.75100
O610        O  0.75889418  0.88507674  0.18296876    -0.80700
O611        O  0.71878645  0.79210052  0.06806408    -0.78900
O612        O  0.66703268  0.83343904  0.12563852    -1.15100
O613        O  0.61129091  0.73029255  0.08328298    -0.74300
C614        C  0.57695214  0.73858581  0.06013089     0.96500
C615        C  0.65760767  0.91999928  0.19177489     0.92900
Al616      Al  0.72899139  0.90046888  0.12576768     1.55600
O617        O  0.56499767  0.76666491  0.16892857    -0.78900
C618        C  0.76188495  0.83816275  0.06021564     0.97000
C619        C  0.66230174  0.92353364  0.06012124     0.91900
O620        O  0.61965489  0.88918812  0.08321469    -0.84200
C621        C  0.84773452  0.80654431  0.27290293     0.78400
N622        N  0.89637999  0.85493492  0.27195159    -0.79900
C623        C  0.89993795  0.89970307  0.24896804     0.80800
N624        N  0.85515714  0.89612486  0.22596495    -0.79900
C625        C  0.80676912  0.84748824  0.22497244     0.80900
N626        N  0.80270845  0.80247284  0.24892318    -0.81600
C627        C  0.95185509  0.95161927  0.24894634     0.78400
N628        N  0.50036211  0.95155251  0.24886763    -0.79900
C629        C  0.54885524  0.50012936  0.24879325     0.80800
N630        N  0.54892213  0.54870337  0.24878266    -0.79900
C631        C  0.50034593  0.54863541  0.24885755     0.80900
N632        N  0.95177102  0.50012512  0.24894838    -0.81600
C633        C  0.54126690  0.69370331  0.22485960     0.78400
N634        N  0.50034557  0.69778914  0.24885072    -0.79900
C635        C  0.95942235  0.65278281  0.27283946     0.80800
N636        N  0.95917514  0.60414585  0.27186042    -0.79900
C637        C  0.50034292  0.60055603  0.24884850     0.80900
N638        N  0.54151294  0.64531216  0.22583646    -0.81600
C639        C  0.65299207  0.95918113  0.22482125     0.78400
N640        N  0.60434540  0.95892383  0.22577808    -0.79900
C641        C  0.60077368  0.50013493  0.24876294     0.80800
N642        N  0.64555687  0.54134443  0.27175796    -0.79900
C643        C  0.69394600  0.54109843  0.27274478     0.80900
N644        N  0.69800663  0.50014040  0.24879847    -0.81600
O645        O  0.74183394  0.62656551  0.81474270    -0.83700
C646        C  0.92375765  0.66198358  0.93758130     0.95700
O647        O  0.88943384  0.61935749  0.91441138    -0.72800
O648        O  0.78193617  0.57368105  0.92966125    -0.76400
Al649      Al  0.82860345  0.59973839  0.87193237     1.49000
C650        C  0.73882930  0.57663420  0.93750571     0.90900
O651        O  0.79235828  0.71847732  0.92973599    -0.82600
O652        O  0.88531598  0.75862605  0.81484887    -0.76200
Al653      Al  0.77172677  0.67184112  0.87195810     1.90100
O654        O  0.88105898  0.76989788  0.91449594    -0.75200
O655        O  0.93571583  0.70200730  0.82880110    -0.75100
O656        O  0.92670518  0.70804539  0.92977960    -0.81300
O657        O  0.87392121  0.61518258  0.81475865    -0.78900
O658        O  0.83367983  0.66676364  0.87208148    -1.15100
O659        O  0.76690428  0.56478719  0.82867576    -0.74300
C660        C  0.73772940  0.58026051  0.80583225     0.96500
C661        C  0.83841785  0.76158984  0.93760522     0.92900
Al662      Al  0.90071229  0.72871270  0.87203009     1.55600
O663        O  0.73052265  0.61097851  0.91438646    -0.78900
C664        C  0.92024751  0.65738609  0.80591174     0.97000
C665        C  0.84311638  0.76274883  0.80595031     0.91900
O666        O  0.79847092  0.73356720  0.82876226    -0.84200
C667        C  0.84383771  0.80553064  0.97149107     0.78400
N668        N  0.89280734  0.85433634  0.97229575    -0.79900
C669        C  0.89836198  0.89808801  0.49893496     0.80800
N670        N  0.85462408  0.89255009  0.52556431    -0.79900
C671        C  0.80581836  0.84357526  0.52634665     0.80900
N672        N  0.80026139  0.79998600  0.49891094    -0.81600
C673        C  0.50035020  0.54904758  0.99887948     0.78400
N674        N  0.95162187  0.00007875  0.99892499    -0.79900
C675        C  0.95138713  0.95111616  0.99892449     0.80800
N676        N  0.50036244  0.95136510  0.99888082    -0.79900
C677        C  0.54933265  0.00009639  0.99883938     0.80900
N678        N  0.54908552  0.54881792  0.99883970    -0.81600
C679        C  0.53842473  0.69463209  0.52626559     0.78400
N680        N  0.50035374  0.70015725  0.99885634    -0.79900
C681        C  0.96227914  0.65655551  0.97145349     0.80800
N682        N  0.96210295  0.60758252  0.97224815    -0.79900
C683        C  0.50034551  0.60206284  0.99887266     0.80900
N684        N  0.53859214  0.64583179  0.52548686    -0.81600
C685        C  0.65688367  0.96205778  0.52624197     0.78400
N686        N  0.70045642  0.00008420  0.99881628    -0.79900
C687        C  0.69489888  0.53811701  0.97138464     0.80800
N688        N  0.64609553  0.53829311  0.97218152    -0.79900
C689        C  0.60236173  0.00010054  0.99881974     0.80900
N690        N  0.60791874  0.96190212  0.52545041    -0.81600
O691        O  0.57399121  0.78168974  0.56794884    -0.83700
C692        C  0.76298391  0.84286965  0.69188590     0.95700
O693        O  0.73379144  0.79821740  0.66905220    -0.72800
O694        O  0.62676615  0.74159099  0.68293553    -0.76400
Al695      Al  0.67210501  0.77148523  0.62577875     1.49000
C696        C  0.58044961  0.73748620  0.69179528     0.90900
O697        O  0.61540069  0.87368771  0.68286196    -0.82600
O698        O  0.70836344  0.92649193  0.56800327    -0.76200
Al699      Al  0.60000031  0.82836271  0.62569012     1.90100
O700        O  0.70225891  0.93544904  0.66897860    -0.75200
O701        O  0.77018343  0.88081478  0.58332690    -0.75100
O702        O  0.75889403  0.88507678  0.68296874    -0.80700
O703        O  0.71878658  0.79210063  0.56806406    -0.78900
O704        O  0.66703287  0.83343927  0.62563846    -1.15100
O705        O  0.61129095  0.73029250  0.58328291    -0.74300
C706        C  0.57695216  0.73858577  0.56013088     0.96500
C707        C  0.65760768  0.91999923  0.69177489     0.92900
Al708      Al  0.72899159  0.90046910  0.62576764     1.55600
O709        O  0.56499766  0.76666482  0.66892866    -0.78900
C710        C  0.76188487  0.83816286  0.56021562     0.97000
C711        C  0.66230173  0.92353356  0.56012124     0.91900
O712        O  0.61965481  0.88918808  0.58321467    -0.84200
C713        C  0.84773457  0.80654446  0.77290293     0.78400
N714        N  0.89638004  0.85493495  0.77195157    -0.79900
C715        C  0.89993789  0.89970319  0.74896809     0.80800
N716        N  0.85515709  0.89612501  0.72596497    -0.79900
C717        C  0.80676923  0.84748832  0.72497247     0.80900
N718        N  0.80270851  0.80247283  0.74892328    -0.81600
C719        C  0.95185509  0.95161923  0.74894636     0.78400
N720        N  0.50036215  0.95155254  0.74886776    -0.79900
C721        C  0.54885515  0.50012929  0.74879319     0.80800
N722        N  0.54892196  0.54870330  0.74878267    -0.79900
C723        C  0.50034583  0.54863543  0.74885784     0.80900
N724        N  0.95177099  0.50012502  0.74894838    -0.81600
C725        C  0.54126685  0.69370328  0.72485959     0.78400
N726        N  0.50034552  0.69778928  0.74885071    -0.79900
C727        C  0.95942244  0.65278291  0.77283942     0.80800
N728        N  0.95917523  0.60414599  0.77186037    -0.79900
C729        C  0.50034297  0.60055616  0.74884854     0.80900
N730        N  0.54151297  0.64531213  0.72583646    -0.81600
C731        C  0.65299212  0.95918128  0.72482118     0.78400
N732        N  0.60434541  0.95892382  0.72577813    -0.79900
C733        C  0.60077361  0.50013491  0.74876295     0.80800
N734        N  0.64555683  0.54134441  0.77175800    -0.79900
C735        C  0.69394603  0.54109838  0.77274474     0.80900
N736        N  0.69800666  0.50014031  0.74879842    -0.81600
loop_ 
_geom_bond_atom_site_label_1 
_geom_bond_atom_site_label_2 
_geom_bond_distance 
_geom_bond_site_symmetry_2 
_ccdc_geom_bond_type 
O1           C16   1.260       .  A
O1           Al9   1.899       .  S
C2           O12   1.262       .  A
C2            O3   1.256       .  A
C2           C37   1.473       .  S
O3           Al5   1.885       .  S
O4            C6   1.263       .  A
O4           Al5   1.922       .  S
Al5          O13   1.900       .  S
Al5          O15   1.893       .  S
Al5          O14   1.802       .  S
C6           O19   1.257       .  A
C6           C43   1.473       .  S
O7           C17   1.263       .  A
O7           Al9   1.921       .  S
O8           C21   1.260       .  A
O8          Al18   1.899       .  S
Al9          O22   1.894       .  S
Al9          O19   1.885       .  S
Al9          O14   1.802       .  S
O10          C17   1.257       .  A
O10         Al18   1.885       .  S
O11          C20   1.255       .  A
O11         Al18   1.894       .  S
O12         Al18   1.921       .  S
O13          C20   1.261       .  A
O14         Al18   1.802       .  S
O15          C16   1.255       .  A
C16          C91   1.463       .  S
C17          C23   1.473       .  S
C20          C83   1.464       .  S
C21          O22   1.255       .  A
C21          C69   1.463       .  S
C23          N24   1.363       .  A
C23         N120   1.363       .  A
N24         C117   1.355       .  A
C25         C123   1.478       .  S
C25          N26   1.355   1_556  A
C25         N116   1.355       .  A
N26          C27   1.363       .  A
C27          C66   1.473       .  S
C27          N28   1.363   1_554  A
N28         C115   1.363       .  A
C29          C39   1.478       .  S
C29          N34   1.362       .  A
C29         N582   1.362   1_455  A
N30          C31   1.362       .  A
N30         C581   1.362       .  A
C31         C117   1.478       .  S
C31         N400   1.362       .  A
N32          C33   1.362       .  A
N32         C399   1.362   1_455  A
C33          C45   1.478       .  S
C33         N218   1.362       .  A
N34         C217   1.362       .  A
C35          C62   1.473       .  S
C35          N40   1.363       .  A
C35         N128   1.363   1_554  A
N36         C127   1.363       .  A
N36         C405   1.363   1_455  A
C37          N38   1.363       .  A
C37         N404   1.363       .  A
N38         C407   1.355       .  A
C39         N406   1.355   1_455  A
C39         N132   1.355       .  A
N40         C131   1.355   1_554  A
C41          C67   1.473       .  S
C41          N46   1.363       .  A
C41         N134   1.363   1_554  A
N42         C133   1.363       .  A
N42         C227   1.363       .  A
C43          N44   1.363       .  A
C43         N226   1.363       .  A
N44         C229   1.355       .  A
C45         N228   1.355       .  A
C45         N138   1.355       .  A
N46         C137   1.355   1_554  A
O47          C62   1.262       .  A
O47         Al55   1.921       .  S
C48          O58   1.260       .  A
C48          O49   1.255       .  A
C48          C73   1.463       .  S
O49         Al51   1.893       .  S
O50          C52   1.261       .  A
O50         Al51   1.900       .  S
Al51         O59   1.921       .  S
Al51         O61   1.884       .  S
Al51         O60   1.802       .  S
C52          O65   1.255       .  A
C52          C81   1.464       .  S
O53          C63   1.260       .  A
O53         Al55   1.899       .  S
O54          C67   1.262       .  A
O54         Al64   1.921       .  S
Al55         O68   1.885       .  S
Al55         O65   1.894       .  S
Al55         O60   1.802       .  S
O56          C63   1.255       .  A
O56         Al64   1.894       .  S
O57          C66   1.257       .  A
O57         Al64   1.885       .  S
O58         Al64   1.899       .  S
O59          C66   1.263       .  A
O60         Al64   1.802       .  S
O61          C62   1.256       .  A
C63          C87   1.463       .  S
C67          O68   1.257       .  A
C69          N70   1.353       .  A
C69          N74   1.364       .  A
N70          C71   1.351       .  A
C71          C75   1.447       .  S
C71          N72   1.351       .  A
N72          C73   1.352       .  A
C73          N74   1.364       .  A
C75         N444   1.353       .  A
C75         N264   1.353       .  A
N76         C443   1.353   1_455  A
N76         C261   1.353       .  A
C77          C89   1.447       .  S
C77          N78   1.353       .  A
C77         N260   1.353   1_545  A
N78          C79   1.353       .  A
C79          C85   1.447       .  S
C79         N448   1.353   1_455  A
N80         C259   1.353   1_545  A
N80         C447   1.353       .  A
C81          N82   1.364       .  A
C81          N86   1.353       .  A
N82         C451   1.364   1_455  A
C83          N84   1.353       .  A
C83         N450   1.364       .  A
N84         C453   1.351       .  A
C85          N86   1.351       .  A
C85         N452   1.351   1_455  A
C87          N88   1.353       .  A
C87         N276   1.364       .  A
N88         C273   1.351       .  A
C89          N90   1.351       .  A
C89         N272   1.351   1_545  A
N90          C91   1.352       .  A
C91          N92   1.364       .  A
N92         C271   1.364   1_545  A
O93         C108   1.260       .  A
O93        Al101   1.899       .  S
C94         O104   1.262       .  A
C94          O95   1.256       .  A
C94         C129   1.473       .  S
O95         Al97   1.885       .  S
O96          C98   1.263       .  A
O96         Al97   1.922       .  S
Al97        O105   1.900       .  S
Al97        O107   1.893       .  S
Al97        O106   1.802       .  S
C98         O111   1.257       .  A
C98         C135   1.473       .  S
O99         C109   1.262       .  A
O99        Al101   1.921       .  S
O100        C113   1.260       .  A
O100       Al110   1.899       .  S
Al101       O114   1.894       .  S
Al101       O111   1.885       .  S
Al101       O106   1.802       .  S
O102        C109   1.257       .  A
O102       Al110   1.885       .  S
O103        C112   1.255       .  A
O103       Al110   1.894       .  S
O104       Al110   1.921       .  S
O105        C112   1.261       .  A
O106       Al110   1.802       .  S
O107        C108   1.255       .  A
C108        C183   1.463       .  S
C109        C115   1.473       .  S
C112        C175   1.464       .  S
C113        O114   1.255       .  A
C113        C161   1.463       .  S
C115        N116   1.363       .  A
C117        N118   1.355       .  A
N118        C119   1.363       .  A
C119        C158   1.473       .  S
C119        N120   1.363       .  A
C121        C131   1.478       .  S
C121        N674   1.362   1_455  A
C121        N126   1.362       .  A
N122        C673   1.362       .  A
N122        C123   1.362       .  A
C123        N492   1.362       .  A
N124        C491   1.362   1_455  A
N124        C125   1.362       .  A
C125        C137   1.478       .  S
C125        N310   1.362       .  A
N126        C309   1.362       .  A
C127        C154   1.473       .  S
C127        N132   1.363       .  A
N128        C497   1.363   1_455  A
C129        N496   1.363       .  A
C129        N130   1.363       .  A
N130        C499   1.355       .  A
C131        N498   1.355   1_455  A
C133        C159   1.473       .  S
C133        N138   1.363       .  A
N134        C319   1.363       .  A
C135        N318   1.363       .  A
C135        N136   1.363       .  A
N136        C321   1.355       .  A
C137        N320   1.355       .  A
O139        C154   1.262       .  A
O139       Al147   1.921       .  S
C140        O150   1.260       .  A
C140        O141   1.255       .  A
C140        C165   1.463       .  S
O141       Al143   1.893       .  S
O142        C144   1.261       .  A
O142       Al143   1.900       .  S
Al143       O151   1.921       .  S
Al143       O153   1.884       .  S
Al143       O152   1.802       .  S
C144        O157   1.255       .  A
C144        C173   1.464       .  S
O145        C155   1.260       .  A
O145       Al147   1.899       .  S
O146        C159   1.262       .  A
O146       Al156   1.921       .  S
Al147       O160   1.885       .  S
Al147       O157   1.894       .  S
Al147       O152   1.802       .  S
O148        C155   1.255       .  A
O148       Al156   1.894       .  S
O149        C158   1.257       .  A
O149       Al156   1.885       .  S
O150       Al156   1.899       .  S
O151        C158   1.263       .  A
O152       Al156   1.802       .  S
O153        C154   1.256       .  A
C155        C179   1.463       .  S
C159        O160   1.257       .  A
C161        N162   1.353       .  A
C161        N166   1.364       .  A
N162        C163   1.351       .  A
C163        C167   1.447       .  S
C163        N164   1.351       .  A
N164        C165   1.352       .  A
C165        N166   1.364       .  A
C167        N536   1.353       .  A
C167        N356   1.353       .  A
N168        C535   1.353   1_455  A
N168        C353   1.353       .  A
C169        C181   1.447       .  S
C169        N352   1.353   1_545  A
C169        N170   1.353       .  A
N170        C171   1.353       .  A
C171        C177   1.447       .  S
C171        N540   1.353   1_455  A
N172        C351   1.353   1_545  A
N172        C539   1.353       .  A
C173        N174   1.364       .  A
C173        N178   1.353       .  A
N174        C543   1.364   1_455  A
C175        N542   1.364       .  A
C175        N176   1.353       .  A
N176        C545   1.351       .  A
C177        N544   1.351   1_455  A
C177        N178   1.351       .  A
C179        N180   1.353       .  A
C179        N368   1.364       .  A
N180        C365   1.351       .  A
C181        N364   1.351   1_545  A
C181        N182   1.351       .  A
N182        C183   1.352       .  A
C183        N184   1.364       .  A
N184        C363   1.364   1_545  A
O185        C200   1.260       .  A
O185       Al193   1.899       .  S
C186        O196   1.262       .  A
C186        O187   1.256       .  A
C186        C221   1.473       .  S
O187       Al189   1.885       .  S
O188        C190   1.263       .  A
O188       Al189   1.922       .  S
Al189       O197   1.900       .  S
Al189       O199   1.893       .  S
Al189       O198   1.802       .  S
C190        O203   1.257       .  A
C190        C227   1.473       .  S
O191        C201   1.262       .  A
O191       Al193   1.921       .  S
O192        C205   1.260       .  A
O192       Al202   1.899       .  S
Al193       O206   1.894       .  S
Al193       O203   1.885       .  S
Al193       O198   1.802       .  S
O194        C201   1.257       .  A
O194       Al202   1.885       .  S
O195        C204   1.255       .  A
O195       Al202   1.894       .  S
O196       Al202   1.921       .  S
O197        C204   1.261       .  A
O198       Al202   1.802       .  S
O199        C200   1.255       .  A
C200        C275   1.463       .  S
C201        C207   1.473       .  S
C204        C267   1.464       .  S
C205        O206   1.255       .  A
C205        C253   1.463       .  S
C207        N208   1.363       .  A
C207        N304   1.363       .  A
N208        C301   1.355       .  A
C209        C307   1.478       .  S
C209        N300   1.355       .  A
C209        N210   1.355   1_556  A
N210        C211   1.363       .  A
C211        C250   1.473       .  S
C211        N212   1.363   1_554  A
N212        C299   1.363       .  A
C213        C223   1.478       .  S
C213        N398   1.362   1_455  A
C213        N218   1.362       .  A
N214        C397   1.362       .  A
N214        C215   1.362   1_545  A
C215        C301   1.478       .  S
C215        N584   1.362       .  A
N216        C583   1.362   1_455  A
N216        C217   1.362   1_565  A
C217        C229   1.478       .  S
C219        C246   1.473       .  S
C219        N312   1.363   1_554  A
C219        N224   1.363       .  A
N220        C311   1.363       .  A
N220        C589   1.363   1_455  A
C221        N588   1.363       .  A
C221        N222   1.363       .  A
N222        C591   1.355       .  A
C223        N590   1.355   1_455  A
C223        N316   1.355       .  A
N224        C315   1.355   1_554  A
C225        C251   1.473       .  S
C225        N318   1.363   1_564  A
C225        N230   1.363       .  A
N226        C317   1.363   1_545  A
C227        N228   1.363       .  A
C229        N322   1.355   1_545  A
N230        C321   1.355   1_564  A
O231        C246   1.262       .  A
O231       Al239   1.921       .  S
C232        O242   1.260       .  A
C232        O233   1.255       .  A
C232        C257   1.463       .  S
O233       Al235   1.893       .  S
O234        C236   1.261       .  A
O234       Al235   1.900       .  S
Al235       O243   1.921       .  S
Al235       O245   1.885       .  S
Al235       O244   1.802       .  S
C236        O249   1.255       .  A
C236        C265   1.464       .  S
O237        C247   1.260       .  A
O237       Al239   1.899       .  S
O238        C251   1.262       .  A
O238       Al248   1.921       .  S
Al239       O252   1.885       .  S
Al239       O249   1.894       .  S
Al239       O244   1.802       .  S
O240        C247   1.255       .  A
O240       Al248   1.894       .  S
O241        C250   1.257       .  A
O241       Al248   1.885       .  S
O242       Al248   1.899       .  S
O243        C250   1.263       .  A
O244       Al248   1.802       .  S
O245        C246   1.256       .  A
C247        C271   1.463       .  S
C251        O252   1.257       .  A
C253        N254   1.353       .  A
C253        N258   1.364       .  A
N254        C255   1.351       .  A
C255        C259   1.447       .  S
C255        N256   1.351       .  A
N256        C257   1.352       .  A
C257        N258   1.364       .  A
C259        N628   1.353       .  A
N260        C627   1.353   1_455  A
C261        C273   1.447       .  S
C261        N262   1.353       .  A
N262        C263   1.353       .  A
C263        C269   1.447       .  S
C263        N632   1.353   1_455  A
N264        C631   1.353       .  A
C265        N266   1.364       .  A
C265        N270   1.353       .  A
N266        C635   1.364   1_455  A
C267        N634   1.364       .  A
C267        N268   1.353       .  A
N268        C637   1.351       .  A
C269        N636   1.351   1_455  A
C269        N270   1.351       .  A
C271        N272   1.353       .  A
C273        N274   1.351       .  A
N274        C275   1.352       .  A
C275        N276   1.364       .  A
O277        C292   1.260       .  A
O277       Al285   1.899       .  S
C278        O288   1.262       .  A
C278        O279   1.256       .  A
C278        C313   1.473       .  S
O279       Al281   1.885       .  S
O280        C282   1.263       .  A
O280       Al281   1.922       .  S
Al281       O289   1.900       .  S
Al281       O291   1.893       .  S
Al281       O290   1.802       .  S
C282        O295   1.257       .  A
C282        C319   1.473       .  S
O283        C293   1.262       .  A
O283       Al285   1.921       .  S
O284        C297   1.260       .  A
O284       Al294   1.899       .  S
Al285       O298   1.894       .  S
Al285       O295   1.885       .  S
Al285       O290   1.802       .  S
O286        C293   1.257       .  A
O286       Al294   1.885       .  S
O287        C296   1.255       .  A
O287       Al294   1.894       .  S
O288       Al294   1.921       .  S
O289        C296   1.261       .  A
O290       Al294   1.802       .  S
O291        C292   1.255       .  A
C292        C367   1.463       .  S
C293        C299   1.473       .  S
C296        C359   1.464       .  S
C297        O298   1.255       .  A
C297        C345   1.463       .  S
C299        N300   1.363       .  A
C301        N302   1.355       .  A
N302        C303   1.363       .  A
C303        C342   1.473       .  S
C303        N304   1.363       .  A
C305        C315   1.478       .  S
C305        N490   1.362   1_455  A
C305        N310   1.362       .  A
N306        C489   1.362       .  A
N306        C307   1.362   1_545  A
C307        N676   1.362       .  A
N308        C675   1.362   1_455  A
N308        C309   1.362   1_565  A
C309        C321   1.478       .  S
C311        C338   1.473       .  S
C311        N316   1.363       .  A
N312        C681   1.363   1_455  A
C313        N680   1.363       .  A
C313        N314   1.363       .  A
N314        C683   1.355       .  A
C315        N682   1.355   1_455  A
C317        C343   1.473       .  S
C317        N322   1.363       .  A
C319        N320   1.363       .  A
O323        C338   1.262       .  A
O323       Al331   1.921       .  S
C324        O334   1.260       .  A
C324        O325   1.255       .  A
C324        C349   1.463       .  S
O325       Al327   1.893       .  S
O326        C328   1.261       .  A
O326       Al327   1.900       .  S
Al327       O335   1.921       .  S
Al327       O337   1.885       .  S
Al327       O336   1.802       .  S
C328        O341   1.255       .  A
C328        C357   1.464       .  S
O329        C339   1.260       .  A
O329       Al331   1.899       .  S
O330        C343   1.262       .  A
O330       Al340   1.921       .  S
Al331       O344   1.885       .  S
Al331       O341   1.894       .  S
Al331       O336   1.802       .  S
O332        C339   1.255       .  A
O332       Al340   1.894       .  S
O333        C342   1.257       .  A
O333       Al340   1.885       .  S
O334       Al340   1.899       .  S
O335        C342   1.263       .  A
O336       Al340   1.802       .  S
O337        C338   1.256       .  A
C339        C363   1.463       .  S
C343        O344   1.257       .  A
C345        N346   1.353       .  A
C345        N350   1.364       .  A
N346        C347   1.351       .  A
C347        C351   1.447       .  S
C347        N348   1.351       .  A
N348        C349   1.352       .  A
C349        N350   1.364       .  A
C351        N720   1.353       .  A
N352        C719   1.353   1_455  A
C353        C365   1.447       .  S
C353        N354   1.353       .  A
N354        C355   1.353       .  A
C355        C361   1.447       .  S
C355        N724   1.353   1_455  A
N356        C723   1.353       .  A
C357        N358   1.364       .  A
C357        N362   1.353       .  A
N358        C727   1.364   1_455  A
C359        N726   1.364       .  A
C359        N360   1.353       .  A
N360        C729   1.351       .  A
C361        N728   1.351   1_455  A
C361        N362   1.351       .  A
C363        N364   1.353       .  A
C365        N366   1.351       .  A
N366        C367   1.352       .  A
C367        N368   1.364       .  A
O369        C384   1.260       .  A
O369       Al377   1.899       .  S
C370        O380   1.262       .  A
C370        O371   1.256       .  A
C370        C405   1.473       .  S
O371       Al373   1.885       .  S
O372        C374   1.263       .  A
O372       Al373   1.922       .  S
Al373       O381   1.900       .  S
Al373       O383   1.893       .  S
Al373       O382   1.802       .  S
C374        O387   1.257       .  A
C374        C411   1.473       .  S
O375        C385   1.263       .  A
O375       Al377   1.921       .  S
O376        C389   1.260       .  A
O376       Al386   1.899       .  S
Al377       O390   1.894       .  S
Al377       O387   1.885       .  S
Al377       O382   1.802       .  S
O378        C385   1.257       .  A
O378       Al386   1.885       .  S
O379        C388   1.255       .  A
O379       Al386   1.894       .  S
O380       Al386   1.921       .  S
O381        C388   1.261       .  A
O382       Al386   1.802       .  S
O383        C384   1.255       .  A
C384        C459   1.463       .  S
C385        C391   1.473       .  S
C388        C451   1.464       .  S
C389        O390   1.255       .  A
C389        C437   1.463       .  S
C391        N392   1.363       .  A
C391        N488   1.363       .  A
N392        C485   1.355       .  A
C393        C491   1.478       .  S
C393        N484   1.355       .  A
C393        N394   1.355   1_556  A
N394        C395   1.363       .  A
C395        C434   1.473       .  S
C395        N396   1.363   1_554  A
N396        C483   1.363       .  A
C397        C407   1.478       .  S
C397        N402   1.362       .  A
N398        C399   1.362       .  A
C399        C485   1.478       .  S
N400        C401   1.362       .  A
C401        C413   1.478       .  S
C401        N586   1.362       .  A
N402        C585   1.362       .  A
C403        C430   1.473       .  S
C403        N496   1.363   1_554  A
C403        N408   1.363       .  A
N404        C495   1.363       .  A
C405        N406   1.363       .  A
C407        N500   1.355       .  A
N408        C499   1.355   1_554  A
C409        C435   1.473       .  S
C409        N502   1.363   1_554  A
C409        N414   1.363       .  A
N410        C501   1.363       .  A
N410        C595   1.363       .  A
C411        N594   1.363       .  A
C411        N412   1.363       .  A
N412        C597   1.355       .  A
C413        N596   1.355       .  A
C413        N506   1.355       .  A
N414        C505   1.355   1_554  A
O415        C430   1.262       .  A
O415       Al423   1.921       .  S
C416        O426   1.260       .  A
C416        O417   1.255       .  A
C416        C441   1.463       .  S
O417       Al419   1.893       .  S
O418        C420   1.261       .  A
O418       Al419   1.900       .  S
Al419       O427   1.921       .  S
Al419       O429   1.885       .  S
Al419       O428   1.802       .  S
C420        O433   1.255       .  A
C420        C449   1.464       .  S
O421        C431   1.260       .  A
O421       Al423   1.899       .  S
O422        C435   1.262       .  A
O422       Al432   1.921       .  S
Al423       O436   1.885       .  S
Al423       O433   1.894       .  S
Al423       O428   1.802       .  S
O424        C431   1.255       .  A
O424       Al432   1.894       .  S
O425        C434   1.257       .  A
O425       Al432   1.885       .  S
O426       Al432   1.899       .  S
O427        C434   1.263       .  A
O428       Al432   1.802       .  S
O429        C430   1.256       .  A
C431        C455   1.463       .  S
C435        O436   1.257       .  A
C437        N438   1.353       .  A
C437        N442   1.364       .  A
N438        C439   1.351       .  A
C439        C443   1.447       .  S
C439        N440   1.351       .  A
N440        C441   1.352       .  A
C441        N442   1.364       .  A
C443        N632   1.353       .  A
N444        C629   1.353       .  A
C445        C457   1.447       .  S
C445        N628   1.353   1_545  A
C445        N446   1.353       .  A
N446        C447   1.353       .  A
C447        C453   1.447       .  S
N448        C627   1.353   1_545  A
C449        N450   1.364       .  A
C449        N454   1.353       .  A
C451        N452   1.353       .  A
C453        N454   1.351       .  A
C455        N456   1.353       .  A
C455        N644   1.364       .  A
N456        C641   1.351       .  A
C457        N640   1.351   1_545  A
C457        N458   1.351       .  A
N458        C459   1.352       .  A
C459        N460   1.364       .  A
N460        C639   1.364   1_545  A
O461        C476   1.260       .  A
O461       Al469   1.899       .  S
C462        O472   1.262       .  A
C462        O463   1.256       .  A
C462        C497   1.473       .  S
O463       Al465   1.885       .  S
O464        C466   1.263       .  A
O464       Al465   1.922       .  S
Al465       O473   1.900       .  S
Al465       O475   1.893       .  S
Al465       O474   1.802       .  S
C466        O479   1.257       .  A
C466        C503   1.473       .  S
O467        C477   1.262       .  A
O467       Al469   1.921       .  S
O468        C481   1.260       .  A
O468       Al478   1.899       .  S
Al469       O482   1.894       .  S
Al469       O479   1.885       .  S
Al469       O474   1.802       .  S
O470        C477   1.257       .  A
O470       Al478   1.885       .  S
O471        C480   1.255       .  A
O471       Al478   1.894       .  S
O472       Al478   1.921       .  S
O473        C480   1.261       .  A
O474       Al478   1.802       .  S
O475        C476   1.255       .  A
C476        C551   1.463       .  S
C477        C483   1.473       .  S
C480        C543   1.464       .  S
C481        O482   1.255       .  A
C481        C529   1.463       .  S
C483        N484   1.363       .  A
C485        N486   1.355       .  A
N486        C487   1.363       .  A
C487        C526   1.473       .  S
C487        N488   1.363       .  A
C489        C499   1.478       .  S
C489        N494   1.362       .  A
N490        C491   1.362       .  A
N492        C493   1.362       .  A
C493        C505   1.478       .  S
C493        N678   1.362       .  A
N494        C677   1.362       .  A
C495        C522   1.473       .  S
C495        N500   1.363       .  A
C497        N498   1.363       .  A
C501        C527   1.473       .  S
C501        N506   1.363       .  A
N502        C687   1.363       .  A
C503        N686   1.363       .  A
C503        N504   1.363       .  A
N504        C689   1.355       .  A
C505        N688   1.355       .  A
O507        C522   1.262       .  A
O507       Al515   1.921       .  S
C508        O518   1.260       .  A
C508        O509   1.255       .  A
C508        C533   1.463       .  S
O509       Al511   1.893       .  S
O510        C512   1.261       .  A
O510       Al511   1.900       .  S
Al511       O519   1.921       .  S
Al511       O521   1.884       .  S
Al511       O520   1.802       .  S
C512        O525   1.255       .  A
C512        C541   1.464       .  S
O513        C523   1.260       .  A
O513       Al515   1.899       .  S
O514        C527   1.262       .  A
O514       Al524   1.921       .  S
Al515       O528   1.885       .  S
Al515       O525   1.894       .  S
Al515       O520   1.802       .  S
O516        C523   1.255       .  A
O516       Al524   1.894       .  S
O517        C526   1.257       .  A
O517       Al524   1.885       .  S
O518       Al524   1.899       .  S
O519        C526   1.263       .  A
O520       Al524   1.802       .  S
O521        C522   1.256       .  A
C523        C547   1.463       .  S
C527        O528   1.257       .  A
C529        N530   1.353       .  A
C529        N534   1.364       .  A
N530        C531   1.351       .  A
C531        C535   1.447       .  S
C531        N532   1.351       .  A
N532        C533   1.352       .  A
C533        N534   1.364       .  A
C535        N724   1.353       .  A
N536        C721   1.353       .  A
C537        C549   1.447       .  S
C537        N720   1.353   1_545  A
C537        N538   1.353       .  A
N538        C539   1.353       .  A
C539        C545   1.447       .  S
N540        C719   1.353   1_545  A
C541        N542   1.364       .  A
C541        N546   1.353       .  A
C543        N544   1.353       .  A
C545        N546   1.351       .  A
C547        N548   1.353       .  A
C547        N736   1.364       .  A
N548        C733   1.351       .  A
C549        N732   1.351   1_545  A
C549        N550   1.351       .  A
N550        C551   1.352       .  A
C551        N552   1.364       .  A
N552        C731   1.364   1_545  A
O553        C568   1.260       .  A
O553       Al561   1.899       .  S
C554        O564   1.262       .  A
C554        O555   1.256       .  A
C554        C589   1.473       .  S
O555       Al557   1.885       .  S
O556        C558   1.263       .  A
O556       Al557   1.922       .  S
Al557       O565   1.900       .  S
Al557       O567   1.893       .  S
Al557       O566   1.802       .  S
C558        O571   1.257       .  A
C558        C595   1.473       .  S
O559        C569   1.262       .  A
O559       Al561   1.921       .  S
O560        C573   1.260       .  A
O560       Al570   1.899       .  S
Al561       O574   1.894       .  S
Al561       O571   1.885       .  S
Al561       O566   1.802       .  S
O562        C569   1.257       .  A
O562       Al570   1.885       .  S
O563        C572   1.255       .  A
O563       Al570   1.894       .  S
O564       Al570   1.921       .  S
O565        C572   1.261       .  A
O566       Al570   1.802       .  S
O567        C568   1.255       .  A
C568        C643   1.463       .  S
C569        C575   1.473       .  S
C572        C635   1.464       .  S
C573        O574   1.255       .  A
C573        C621   1.463       .  S
C575        N576   1.363       .  A
C575        N672   1.363       .  A
N576        C669   1.355       .  A
C577        C675   1.478       .  S
C577        N668   1.355       .  A
C577        N578   1.355   1_556  A
N578        C579   1.363       .  A
C579        C618   1.473       .  S
C579        N580   1.363   1_554  A
N580        C667   1.363       .  A
C581        C591   1.478       .  S
C581        N586   1.362       .  A
N582        C583   1.362   1_545  A
C583        C669   1.478       .  S
N584        C585   1.362   1_565  A
C585        C597   1.478       .  S
C587        C614   1.473       .  S
C587        N680   1.363   1_554  A
C587        N592   1.363       .  A
N588        C679   1.363       .  A
C589        N590   1.363       .  A
C591        N684   1.355       .  A
N592        C683   1.355   1_554  A
C593        C619   1.473       .  S
C593        N686   1.363   1_564  A
C593        N598   1.363       .  A
N594        C685   1.363   1_545  A
C595        N596   1.363       .  A
C597        N690   1.355   1_545  A
N598        C689   1.355   1_564  A
O599        C614   1.262       .  A
O599       Al607   1.921       .  S
C600        O610   1.260       .  A
C600        O601   1.255       .  A
C600        C625   1.463       .  S
O601       Al603   1.893       .  S
O602        C604   1.261       .  A
O602       Al603   1.900       .  S
Al603       O611   1.921       .  S
Al603       O613   1.885       .  S
Al603       O612   1.802       .  S
C604        O617   1.255       .  A
C604        C633   1.464       .  S
O605        C615   1.260       .  A
O605       Al607   1.899       .  S
O606        C619   1.262       .  A
O606       Al616   1.921       .  S
Al607       O620   1.885       .  S
Al607       O617   1.894       .  S
Al607       O612   1.802       .  S
O608        C615   1.255       .  A
O608       Al616   1.894       .  S
O609        C618   1.257       .  A
O609       Al616   1.885       .  S
O610       Al616   1.899       .  S
O611        C618   1.263       .  A
O612       Al616   1.802       .  S
O613        C614   1.256       .  A
C615        C639   1.463       .  S
C619        O620   1.257       .  A
C621        N622   1.353       .  A
C621        N626   1.364       .  A
N622        C623   1.351       .  A
C623        C627   1.447       .  S
C623        N624   1.351       .  A
N624        C625   1.352       .  A
C625        N626   1.364       .  A
C629        C641   1.447       .  S
C629        N630   1.353       .  A
N630        C631   1.353       .  A
C631        C637   1.447       .  S
C633        N634   1.364       .  A
C633        N638   1.353       .  A
C635        N636   1.353       .  A
C637        N638   1.351       .  A
C639        N640   1.353       .  A
C641        N642   1.351       .  A
N642        C643   1.352       .  A
C643        N644   1.364       .  A
O645        C660   1.260       .  A
O645       Al653   1.899       .  S
C646        O656   1.262       .  A
C646        O647   1.256       .  A
C646        C681   1.473       .  S
O647       Al649   1.885       .  S
O648        C650   1.263       .  A
O648       Al649   1.922       .  S
Al649       O657   1.900       .  S
Al649       O659   1.893       .  S
Al649       O658   1.802       .  S
C650        O663   1.257       .  A
C650        C687   1.473       .  S
O651        C661   1.262       .  A
O651       Al653   1.921       .  S
O652        C665   1.260       .  A
O652       Al662   1.899       .  S
Al653       O666   1.894       .  S
Al653       O663   1.885       .  S
Al653       O658   1.802       .  S
O654        C661   1.257       .  A
O654       Al662   1.885       .  S
O655        C664   1.255       .  A
O655       Al662   1.894       .  S
O656       Al662   1.921       .  S
O657        C664   1.261       .  A
O658       Al662   1.802       .  S
O659        C660   1.255       .  A
C660        C735   1.463       .  S
C661        C667   1.473       .  S
C664        C727   1.464       .  S
C665        O666   1.255       .  A
C665        C713   1.463       .  S
C667        N668   1.363       .  A
C669        N670   1.355       .  A
N670        C671   1.363       .  A
C671        C710   1.473       .  S
C671        N672   1.363       .  A
C673        C683   1.478       .  S
C673        N678   1.362       .  A
N674        C675   1.362   1_545  A
N676        C677   1.362   1_565  A
C677        C689   1.478       .  S
C679        C706   1.473       .  S
C679        N684   1.363       .  A
C681        N682   1.363       .  A
C685        C711   1.473       .  S
C685        N690   1.363       .  A
C687        N688   1.363       .  A
O691        C706   1.262       .  A
O691       Al699   1.921       .  S
C692        O702   1.260       .  A
C692        O693   1.255       .  A
C692        C717   1.463       .  S
O693       Al695   1.893       .  S
O694        C696   1.261       .  A
O694       Al695   1.900       .  S
Al695       O703   1.921       .  S
Al695       O705   1.885       .  S
Al695       O704   1.802       .  S
C696        O709   1.255       .  A
C696        C725   1.464       .  S
O697        C707   1.260       .  A
O697       Al699   1.899       .  S
O698        C711   1.262       .  A
O698       Al708   1.921       .  S
Al699       O712   1.885       .  S
Al699       O709   1.894       .  S
Al699       O704   1.802       .  S
O700        C707   1.255       .  A
O700       Al708   1.894       .  S
O701        C710   1.257       .  A
O701       Al708   1.885       .  S
O702       Al708   1.899       .  S
O703        C710   1.263       .  A
O704       Al708   1.802       .  S
O705        C706   1.256       .  A
C707        C731   1.463       .  S
C711        O712   1.257       .  A
C713        N714   1.353       .  A
C713        N718   1.364       .  A
N714        C715   1.351       .  A
C715        C719   1.447       .  S
C715        N716   1.351       .  A
N716        C717   1.352       .  A
C717        N718   1.364       .  A
C721        C733   1.447       .  S
C721        N722   1.353       .  A
N722        C723   1.353       .  A
C723        C729   1.447       .  S
C725        N726   1.364       .  A
C725        N730   1.353       .  A
C727        N728   1.353       .  A
C729        N730   1.351       .  A
C731        N732   1.353       .  A
C733        N734   1.351       .  A
N734        C735   1.352       .  A
C735        N736   1.364       .  A
