geometry optimzed in LAMMPS
_audit_creation_date              2020-11-30 
_audit_creation_method            'lammps2cif' 
_symmetry_space_group_name_H-M    'P1' 
_symmetry_Int_Tables_number       1 
_symmetry_cell_setting            triclinic 
loop_ 
_symmetry_equiv_pos_as_xyz 
  x,y,z 
_cell_length_a                    46.43978897 
_cell_length_b                    46.32148237506812 
_cell_length_c                    45.65003714458111 
_cell_angle_alpha                 89.96905256753689 
_cell_angle_beta                  89.99371106220134 
_cell_angle_gamma                 90.01048132880082 
loop_ 
_atom_site_label 
_atom_site_type_symbol 
_atom_site_fract_x 
_atom_site_fract_y 
_atom_site_fract_z 
_atom_site_charge 
N1          N  0.30490499  0.03566431  0.57956925    -0.27800
N2          N  0.33000719  0.04495796  0.56965169    -0.35600
C3          C  0.33792828  0.02857518  0.54666020     0.00600
C4          C  0.31663454  0.00817755  0.54167360     0.06600
C5          C  0.29601280  0.01343785  0.56292591    -0.06500
H6          H  0.35779224  0.03125692  0.53458215     0.07300
H7          H  0.27651409  0.00123960  0.56680916     0.08500
Cu8        Cu  0.35266716  0.07903945  0.58838039     0.44200
Cu9        Cu  0.28529793  0.05125466  0.61725154     0.42000
Cu10       Cu  0.32820357  0.10214313  0.65942500     0.43900
N11         N  0.37171816  0.11251283  0.61179275    -0.35100
N12         N  0.36348620  0.12026197  0.63837979    -0.29400
C13         C  0.38048190  0.14192358  0.64781363    -0.05500
C14         C  0.40006854  0.14834367  0.62590497     0.06700
C15         C  0.39384328  0.12935166  0.60339295     0.00500
H16         H  0.37827253  0.15264686  0.66873682     0.08200
H17         H  0.40475612  0.12772255  0.58251620     0.07200
N18         N  0.29013320  0.08373229  0.67423759    -0.36600
N19         N  0.27384219  0.06616684  0.65852507    -0.28800
C20         C  0.25030072  0.05913383  0.67419823    -0.04000
C21         C  0.25205965  0.07269079  0.70117109     0.04600
C22         C  0.27759435  0.08805513  0.70040340     0.02700
H23         H  0.23345142  0.04478294  0.66671084     0.07800
H24         H  0.28620842  0.10182270  0.71740908     0.06600
O25         O  0.43326477  0.24229785  0.60208441    -0.73400
O26         O  0.49298142  0.17933326  0.60047277    -0.74400
O27         O  0.43206673  0.18045951  0.60169766    -0.63000
O28         O  0.49423077  0.24086270  0.60078240    -0.71400
O29         O  0.49519401  0.24055253  0.64940629    -0.71000
O30         O  0.43239069  0.18030221  0.65033260    -0.62200
O31         O  0.49412075  0.17934167  0.64909639    -0.74700
O32         O  0.43347735  0.24168912  0.65071032    -0.73500
Cu33       Cu  0.46305776  0.21074496  0.59959905     1.04600
Cu34       Cu  0.46380705  0.21045205  0.65161375     1.04300
C35         C  0.42399608  0.25194242  0.62656227     0.92800
C36         C  0.50314955  0.16963336  0.62454319     0.91900
C37         C  0.42251088  0.17078726  0.62604458     0.84100
C38         C  0.50460186  0.25012692  0.62492703     0.90300
N39         N  0.65139781  0.06541153  0.65938113    -0.27800
N40         N  0.63455326  0.08286568  0.67458606    -0.35600
C41         C  0.64628669  0.08725967  0.70111812     0.00600
C42         C  0.67188963  0.07208104  0.70260571     0.06600
C43         C  0.67451829  0.05853186  0.67571839    -0.06500
H44         H  0.63721345  0.10112415  0.71779310     0.07300
H45         H  0.69177712  0.04447453  0.66864432     0.08500
Cu46       Cu  0.59718616  0.10136082  0.65827499     0.44200
Cu47       Cu  0.64146309  0.05094637  0.61764863     0.42000
Cu48       Cu  0.57642184  0.08107327  0.58520473     0.43900
N49         N  0.56259463  0.11968753  0.63636557    -0.35100
N50         N  0.55553763  0.11301307  0.60914095    -0.29400
C51         C  0.53321762  0.12962680  0.60075267    -0.05500
C52         C  0.52572296  0.14734703  0.62394910     0.06700
C53         C  0.54475704  0.14043664  0.64616856     0.00500
H54         H  0.52312967  0.12877795  0.57940510     0.08200
H55         H  0.54601188  0.15023645  0.66763172     0.07200
N56         N  0.59953770  0.04689468  0.56735231    -0.36600
N57         N  0.62351337  0.03642642  0.57880999    -0.28800
C58         C  0.63228860  0.01371906  0.56279701    -0.04000
C59         C  0.61276990  0.00943512  0.54028901     0.04600
C60         C  0.59230219  0.03092652  0.54387686     0.02700
H61         H  0.65076650  0.00046852  0.56806740     0.07800
H62         H  0.57323965  0.03444336  0.53075394     0.06600
N63         N  0.27319308  0.35265403  0.65582772    -0.27800
N64         N  0.29054395  0.33787103  0.67326117    -0.35600
C65         C  0.27788236  0.33488878  0.69961380     0.00600
C66         C  0.25115914  0.34809837  0.69862959     0.06600
C67         C  0.24884551  0.35898769  0.67048194    -0.06500
H68         H  0.28731461  0.32364846  0.71803612     0.07300
H69         H  0.23119802  0.37150313  0.66162147     0.08500
Cu70       Cu  0.33028877  0.32140011  0.66033043     0.44200
Cu71       Cu  0.28473174  0.36680761  0.61422838     0.42000
Cu72       Cu  0.35538435  0.34503627  0.58961562     0.43900
N73         N  0.36607967  0.30366434  0.63956514    -0.35100
N74         N  0.37445613  0.31155255  0.61305063    -0.29400
C75         C  0.39633140  0.29446232  0.60448409    -0.05500
C76         C  0.40226314  0.27512312  0.62679775     0.06700
C77         C  0.38276582  0.28164926  0.64877649     0.00500
H78         H  0.40710307  0.29598302  0.58352116     0.08200
H79         H  0.38022069  0.27056711  0.66947795     0.07200
N80         N  0.33194006  0.37836999  0.57045986    -0.36600
N81         N  0.30556863  0.38546261  0.57863574    -0.28800
C82         C  0.29647474  0.40786126  0.56227273    -0.04000
C83         C  0.31827644  0.41551346  0.54300223     0.04600
C84         C  0.34043878  0.39628548  0.54889982     0.02700
H85         H  0.27591067  0.41848009  0.56502989     0.07800
H86         H  0.36127625  0.39535366  0.53835462     0.06600
N87         N  0.61182351  0.39525132  0.58670914    -0.27800
N88         N  0.59381107  0.37901794  0.57144371    -0.35600
C89         C  0.58768691  0.39246994  0.54603888     0.00600
C90         C  0.60217621  0.41860737  0.54544618     0.06600
C91         C  0.61716417  0.41967362  0.57165433    -0.06500
H92         H  0.57318359  0.38413348  0.52951371     0.07300
H93         H  0.63134581  0.43670633  0.57901619     0.08500
Cu94       Cu  0.57635131  0.34043433  0.58681061     0.44200
Cu95       Cu  0.62938954  0.38311700  0.62683799     0.42000
Cu96       Cu  0.59512854  0.32199486  0.66131424     0.43900
N97         N  0.55694617  0.30700729  0.61013441    -0.35100
N98         N  0.56297664  0.30118016  0.63782898    -0.29400
C99         C  0.54538110  0.28005861  0.64733149    -0.05500
C100        C  0.52755824  0.27205120  0.62446349     0.06700
C101        C  0.53555068  0.28947794  0.60118431     0.00500
H102        H  0.54560847  0.27116507  0.66924680     0.08200
H103        H  0.52599984  0.28992544  0.57957211     0.07200
N104        N  0.63037694  0.34332924  0.67900382    -0.36600
N105        N  0.64372214  0.36504898  0.66598751    -0.28800
C106        C  0.66677853  0.37262374  0.68219605    -0.04000
C107        C  0.66764192  0.35509534  0.70680159     0.04600
C108        C  0.64421275  0.33684940  0.70402403     0.02700
H109        H  0.68161148  0.38980039  0.67664638     0.07800
H110        H  0.63808430  0.31960397  0.71874202     0.06600
N111        N  0.27355556  0.85531710  0.34169427    -0.27800
N112        N  0.29156977  0.84074317  0.32480728    -0.35600
C113        C  0.27973127  0.83761257  0.29809726     0.00600
C114        C  0.25282383  0.85048192  0.29825073     0.06600
C115        C  0.24957752  0.86137924  0.32630249    -0.06500
H116        H  0.28967720  0.82613223  0.28012222     0.07300
H117        H  0.23138292  0.87336459  0.33474297     0.08500
Cu118      Cu  0.33049204  0.82365725  0.33929181     0.44200
Cu119      Cu  0.28340990  0.86855047  0.38403255     0.42000
Cu120      Cu  0.35079099  0.84224348  0.41307673     0.43900
N121        N  0.36426475  0.80390531  0.36156702    -0.35100
N122        N  0.37075273  0.80987823  0.38910966    -0.29400
C123        C  0.39204648  0.79224364  0.39799645    -0.05500
C124        C  0.39955462  0.77452655  0.37484705     0.06700
C125        C  0.38158324  0.78254477  0.35205559     0.00500
H126        H  0.40158401  0.79254523  0.41962108     0.08200
H127        H  0.38075843  0.77317909  0.33037290     0.07200
N128        N  0.32805160  0.87635880  0.43130025    -0.36600
N129        N  0.30289027  0.88534842  0.42131223    -0.28800
C130        C  0.29437630  0.90834775  0.43708884    -0.04000
C131        C  0.31533828  0.91436829  0.45784763     0.04600
C132        C  0.33635736  0.89356357  0.45348234     0.02700
H133        H  0.27497755  0.92056636  0.43282892     0.07800
H134        H  0.35641435  0.89123967  0.46529506     0.06600
O135        O  0.43193202  0.74278209  0.35033053    -0.73400
O136        O  0.49481435  0.68279345  0.35069533    -0.74400
O137        O  0.43324790  0.68151408  0.34985657    -0.63000
O138        O  0.49347113  0.74394714  0.35083350    -0.71400
O139        O  0.49263748  0.74438573  0.39946462    -0.71000
O140        O  0.43348126  0.68063775  0.39848321    -0.62200
O141        O  0.49448781  0.68270416  0.39933155    -0.74700
O142        O  0.43168648  0.74244063  0.39896655    -0.73500
Cu143      Cu  0.46337672  0.71276905  0.34873653     1.04600
Cu144      Cu  0.46303435  0.71252625  0.40076104     1.04300
C145        C  0.42204272  0.75214642  0.37466988     0.92800
C146        C  0.50452202  0.67332254  0.37508504     0.91900
C147        C  0.42399712  0.67113253  0.37401941     0.84100
C148        C  0.50248615  0.75403069  0.37520464     0.90300
N149        N  0.65205510  0.85627147  0.34072071    -0.27800
N150        N  0.63495819  0.83971558  0.32477512    -0.35600
C151        C  0.64690322  0.83600953  0.29816914     0.00600
C152        C  0.67289538  0.85069233  0.29742724     0.06600
C153        C  0.67549074  0.86320067  0.32484439    -0.06500
H154        H  0.63760437  0.82312209  0.28083020     0.07300
H155        H  0.69284814  0.87683506  0.33250642     0.08500
Cu156      Cu  0.59662969  0.82204357  0.34038836     0.44200
Cu157      Cu  0.64165946  0.87035062  0.38254960     0.42000
Cu158      Cu  0.57330288  0.84525403  0.41203766     0.43900
N159        N  0.56123825  0.80457818  0.36218777    -0.35100
N160        N  0.55330916  0.81243701  0.38884283    -0.29400
C161        C  0.53113275  0.79580348  0.39758673    -0.05500
C162        C  0.52460111  0.77677360  0.37522014     0.06700
C163        C  0.54401090  0.78299925  0.35308869     0.00500
H164        H  0.52058115  0.79745299  0.41865431     0.08200
H165        H  0.54602951  0.77206887  0.33225698     0.07200
N166        N  0.59744548  0.87828687  0.43031802    -0.36600
N167        N  0.62286482  0.88658971  0.42033246    -0.28800
C168        C  0.63239466  0.90880753  0.43662413    -0.04000
C169        C  0.61180228  0.91505102  0.45760115     0.04600
C170        C  0.58994744  0.89526184  0.45294587     0.02700
H171        H  0.65214179  0.92049409  0.43250599     0.07800
H172        H  0.56985554  0.89355476  0.46483717     0.06600
N173        N  0.30594605  0.53670858  0.42041383    -0.27800
N174        N  0.33141417  0.54540610  0.42984323    -0.35600
C175        C  0.33953265  0.52872420  0.45252252     0.00600
C176        C  0.31806586  0.50857147  0.45784303     0.06600
C177        C  0.29706574  0.51440690  0.43704034    -0.06500
H178        H  0.35967957  0.53108896  0.46416207     0.07300
H179        H  0.27723972  0.50265892  0.43350686     0.08500
Cu180      Cu  0.35438589  0.57899398  0.41080975     0.44200
Cu181      Cu  0.28595613  0.55371759  0.38344756     0.42000
Cu182      Cu  0.33016611  0.60222168  0.33936536     0.43900
N183        N  0.37384760  0.61205019  0.38730540    -0.35100
N184        N  0.36578698  0.61987326  0.36066850    -0.29400
C185        C  0.38279314  0.64167664  0.35155173    -0.05500
C186        C  0.40215361  0.64808645  0.37369870     0.06700
C187        C  0.39583695  0.62891428  0.39601603     0.00500
H188        H  0.38058024  0.65269389  0.33077341     0.08200
H189        H  0.40638877  0.62736647  0.41708833     0.07200
N190        N  0.29089533  0.58511806  0.32554975    -0.36600
N191        N  0.27411902  0.56893044  0.34228127    -0.28800
C192        C  0.24974562  0.56283689  0.32756960    -0.04000
C193        C  0.25139037  0.57540689  0.30010861     0.04600
C194        C  0.27781761  0.58926739  0.29954772     0.02700
H195        H  0.23240818  0.54959574  0.33598011     0.07800
H196        H  0.28665843  0.60189103  0.28175052     0.06600
N197        N  0.64204843  0.55775946  0.33216100    -0.27800
N198        N  0.62773558  0.57862962  0.31879849    -0.35600
C199        C  0.64137671  0.58550768  0.29377258     0.00600
C200        C  0.66572310  0.56848694  0.29142409     0.06600
C201        C  0.66556956  0.55119767  0.31620724    -0.06500
H202        H  0.63465478  0.60242865  0.27893858     0.07300
H203        H  0.68133154  0.53502060  0.32216310     0.08500
Cu204      Cu  0.59222635  0.59923176  0.33669811     0.44200
Cu205      Cu  0.62863588  0.53981585  0.37169766     0.42000
Cu206      Cu  0.57596234  0.58246423  0.41220917     0.43900
N207        N  0.56147033  0.62106063  0.36106586    -0.35100
N208        N  0.55638675  0.61587016  0.38908425    -0.29400
C209        C  0.53575353  0.63404082  0.39853997    -0.05500
C210        C  0.52730521  0.65124615  0.37526355     0.06700
C211        C  0.54405116  0.64243421  0.35187498     0.00500
H212        H  0.52695760  0.63412643  0.42048751     0.08200
H213        H  0.54359014  0.65087364  0.32978027     0.07200
N214        N  0.59366515  0.54399761  0.42746635    -0.36600
N215        N  0.61153155  0.52773902  0.41205070    -0.28800
C216        C  0.61697073  0.50332463  0.42708402    -0.04000
C217        C  0.60222354  0.50447369  0.45342008     0.04600
C218        C  0.58776975  0.53060374  0.45295331     0.02700
H219        H  0.63101212  0.48622454  0.41960916     0.07800
H220        H  0.57340192  0.53894051  0.46960090     0.06600
O221        O  0.93248063  0.68032363  0.10079063    -0.73400
O222        O  0.99274180  0.74285965  0.09914034    -0.74400
O223        O  0.99333832  0.68123442  0.09981354    -0.63000
O224        O  0.93171693  0.74208999  0.09964900    -0.71400
O225        O  0.93180518  0.74274675  0.14828295    -0.71000
O226        O  0.99377130  0.68181045  0.14845405    -0.62200
O227        O  0.99344136  0.74289291  0.14778107    -0.74700
O228        O  0.93233817  0.68157158  0.14942504    -0.73500
Cu229      Cu  0.96252149  0.71161665  0.09814951     1.04600
Cu230      Cu  0.96284961  0.71229729  0.15018528     1.04300
C231        C  0.92299556  0.67110419  0.12537036     0.92800
C232        C  0.00273354  0.75251664  0.12331872     0.91900
C233        C  0.00325411  0.67194386  0.12414362     0.84100
C234        C  0.92205680  0.75201750  0.12383067     0.90300
N235        N  0.12107077  0.88789673  0.07991180    -0.27800
N236        N  0.09641922  0.87827570  0.06919318    -0.35600
C237        C  0.08904947  0.89443441  0.04590103     0.00600
C238        C  0.11025609  0.91497559  0.04152189     0.06600
C239        C  0.13028819  0.91012428  0.06340652    -0.06500
H240        H  0.06955646  0.89157291  0.03325269     0.07300
H241        H  0.14945303  0.92266127  0.06784408     0.08500
Cu242      Cu  0.07339282  0.84412623  0.08697127     0.44200
Cu243      Cu  0.13933950  0.87268584  0.11838791     0.42000
Cu244      Cu  0.09593698  0.82121964  0.15888881     0.43900
N245        N  0.05391495  0.81058601  0.10965199    -0.35100
N246        N  0.06145809  0.80296013  0.13649380    -0.29400
C247        C  0.04425699  0.78132990  0.14550966    -0.05500
C248        C  0.02524273  0.77483395  0.12313174     0.06700
C249        C  0.03202446  0.79370500  0.10068163     0.00500
H250        H  0.04583865  0.77075862  0.16658304     0.08200
H251        H  0.02160285  0.79531555  0.07954566     0.07200
N252        N  0.13360399  0.83962397  0.17497353    -0.36600
N253        N  0.15000123  0.85751325  0.15974657    -0.28800
C254        C  0.17327665  0.86448902  0.17580943    -0.04000
C255        C  0.17131963  0.85055011  0.20257678     0.04600
C256        C  0.14586197  0.83501346  0.20126707     0.02700
H257        H  0.19013487  0.87901046  0.16867705     0.07800
H258        H  0.13716071  0.82091071  0.21795834     0.06600
N259        N  0.11335670  0.52853848  0.08661745    -0.27800
N260        N  0.09420879  0.54390204  0.07186414    -0.35600
C261        C  0.08775844  0.53009608  0.04678499     0.00600
C262        C  0.10321990  0.50458103  0.04580086     0.06600
C263        C  0.11916738  0.50425204  0.07147999    -0.06500
H264        H  0.07227695  0.53769579  0.03081696     0.07300
H265        H  0.13411639  0.48773867  0.07849161     0.08500
Cu266      Cu  0.07542111  0.58158112  0.08751157     0.44200
Cu267      Cu  0.13076540  0.54159535  0.12662742     0.42000
Cu268      Cu  0.09240954  0.59973794  0.16244150     0.43900
N269        N  0.05518182  0.61454891  0.11051088    -0.35100
N270        N  0.06067524  0.62034463  0.13831497    -0.29400
C271        C  0.04307665  0.64159048  0.14739927    -0.05500
C272        C  0.02580046  0.64967880  0.12415465     0.06700
C273        C  0.03407308  0.63216835  0.10107731     0.00500
H274        H  0.04303072  0.65060856  0.16925096     0.08200
H275        H  0.02505123  0.63185856  0.07922586     0.07200
N276        N  0.12829375  0.57972604  0.18024336    -0.36600
N277        N  0.14321283  0.55944737  0.16663400    -0.28800
C278        C  0.16667560  0.55310605  0.18275275    -0.04000
C279        C  0.16623711  0.56991106  0.20787215     0.04600
C280        C  0.14151541  0.58641960  0.20556541     0.02700
H281        H  0.18284414  0.53739751  0.17665461     0.07800
H282        H  0.13425315  0.60290703  0.22062024     0.06600
N283        N  0.80388982  0.88662099  0.07742328    -0.27800
N284        N  0.82874064  0.87719847  0.06699260    -0.35600
C285        C  0.83665995  0.89398947  0.04428546     0.00600
C286        C  0.81565011  0.91482954  0.04001196     0.06600
C287        C  0.79516323  0.90935899  0.06136810    -0.06500
H288        H  0.85640224  0.89136296  0.03200403     0.07300
H289        H  0.77595859  0.92183002  0.06582111     0.08500
Cu290      Cu  0.85143489  0.84276082  0.08499609     0.44200
Cu291      Cu  0.78476939  0.87091430  0.11544309     0.42000
Cu292      Cu  0.82946052  0.82247079  0.15804021     0.43900
N293        N  0.87088120  0.80980684  0.10883650    -0.35100
N294        N  0.86361334  0.80318658  0.13603827    -0.29400
C295        C  0.88081602  0.78179402  0.14569258    -0.05500
C296        C  0.89957050  0.77440292  0.12336926     0.06700
C297        C  0.89260295  0.79250542  0.10030907     0.00500
H298        H  0.87940521  0.77200394  0.16715989     0.08200
H299        H  0.90281772  0.79330622  0.07901733     0.07200
N300        N  0.79161538  0.84088012  0.17363270    -0.36600
N301        N  0.77446166  0.85731703  0.15761215    -0.28800
C302        C  0.75105799  0.86424653  0.17356287    -0.04000
C303        C  0.75378775  0.85185898  0.20107459     0.04600
C304        C  0.77980532  0.83727250  0.20029571     0.02700
H305        H  0.73356033  0.87766165  0.16583436     0.07800
H306        H  0.78912940  0.82431874  0.21758119     0.06600
N307        N  0.77349320  0.56919118  0.15715726    -0.27800
N308        N  0.78992882  0.58569853  0.17388113    -0.35600
C309        C  0.77668779  0.58975142  0.19978959     0.00600
C310        C  0.75054277  0.57539751  0.19919356     0.06600
C311        C  0.74918549  0.56272556  0.17179065    -0.06500
H312        H  0.78532204  0.60246077  0.21761388     0.07300
H313        H  0.73218545  0.54903161  0.16343259     0.08500
Cu314      Cu  0.82922187  0.60276491  0.16046448     0.44200
Cu315      Cu  0.78582900  0.55371534  0.11635667     0.42000
Cu316      Cu  0.85501237  0.57759242  0.09027129     0.43900
N317        N  0.86501707  0.61995012  0.13931659    -0.35100
N318        N  0.87366969  0.61135263  0.11313498    -0.29400
C319        C  0.89558047  0.62818541  0.10422789    -0.05500
C320        C  0.90120938  0.64812743  0.12596819     0.06700
C321        C  0.88157467  0.64223213  0.14798808     0.00500
H322        H  0.90656902  0.62605348  0.08343890     0.08200
H323        H  0.87888519  0.65386974  0.16834225     0.07200
N324        N  0.83176671  0.54465619  0.07076278    -0.36600
N325        N  0.80599204  0.53645359  0.07974362    -0.28800
C326        C  0.79681425  0.51458222  0.06276686    -0.04000
C327        C  0.81793035  0.50855767  0.04215257     0.04600
C328        C  0.83978170  0.52814009  0.04797164     0.02700
H329        H  0.77665461  0.50330719  0.06591531     0.07800
H330        H  0.86010279  0.53027727  0.03660426     0.06600
O331        O  0.99283040  0.18028954  0.85036770    -0.73400
O332        O  0.93333461  0.24332910  0.84987786    -0.74400
O333        O  0.99496551  0.24140360  0.85043088    -0.63000
O334        O  0.93142803  0.18220942  0.85022850    -0.71400
O335        O  0.93156616  0.18232075  0.89888568    -0.71000
O336        O  0.99464661  0.24139847  0.89907613    -0.62200
O337        O  0.93365499  0.24402875  0.89850863    -0.74700
O338        O  0.99227347  0.17982545  0.89901118    -0.73500
Cu339      Cu  0.96314931  0.21182442  0.84851743     1.04600
Cu340      Cu  0.96301396  0.21191866  0.90056174     1.04300
C341        C  0.00180439  0.17004848  0.87469466     0.92800
C342        C  0.92412741  0.25361905  0.87408332     0.91900
C343        C  0.00480389  0.25066516  0.87484088     0.84100
C344        C  0.92169361  0.17283074  0.87463349     0.90300
N345        N  0.11283550  0.39501542  0.91303876    -0.27800
N346        N  0.09427984  0.37905371  0.92794424    -0.35600
C347        C  0.08763511  0.39265869  0.95311572     0.00600
C348        C  0.10231588  0.41864902  0.95390917     0.06600
C349        C  0.11797423  0.41949004  0.92808892    -0.06500
H350        H  0.07270860  0.38451241  0.96935550     0.07300
H351        H  0.13249629  0.43638109  0.92105372     0.08500
Cu352      Cu  0.07685603  0.34063527  0.91235577     0.44200
Cu353      Cu  0.13112523  0.38224102  0.87333656     0.42000
Cu354      Cu  0.09509901  0.32230084  0.83788677     0.43900
N355        N  0.05737831  0.30724052  0.88922338    -0.35100
N356        N  0.06322062  0.30140840  0.86150202    -0.29400
C357        C  0.04559010  0.28028290  0.85214097    -0.05500
C358        C  0.02793148  0.27232427  0.87514809     0.06700
C359        C  0.03605030  0.28973902  0.89834791     0.00500
H360        H  0.04563580  0.27141639  0.83022360     0.08200
H361        H  0.02658285  0.29025516  0.91999957     0.07200
N362        N  0.13064363  0.34315790  0.82046925    -0.36600
N363        N  0.14477639  0.36415144  0.83383663    -0.28800
C364        C  0.16797222  0.37123672  0.81758525    -0.04000
C365        C  0.16805727  0.35418955  0.79261880     0.04600
C366        C  0.14405428  0.33672343  0.79521653     0.02700
H367        H  0.18343157  0.38776920  0.82334593     0.07800
H368        H  0.13726684  0.31995552  0.78024922     0.06600
N369        N  0.12046448  0.03545571  0.91888672    -0.27800
N370        N  0.09601223  0.04511004  0.92998978    -0.35600
C371        C  0.08894065  0.02887911  0.95332786     0.00600
C372        C  0.10998198  0.00798331  0.95716715     0.06600
C373        C  0.12969909  0.01295373  0.93495967    -0.06500
H374        H  0.06962603  0.03185875  0.96621033     0.07300
H375        H  0.14869086  0.00036653  0.92996832     0.08500
Cu376      Cu  0.07233202  0.07868713  0.91189242     0.44200
Cu377      Cu  0.13853693  0.05104109  0.88055287     0.42000
Cu378      Cu  0.09469151  0.10128408  0.83947653     0.43900
N379        N  0.05213522  0.11128026  0.88837131    -0.35100
N380        N  0.05973972  0.11881815  0.86151336    -0.29400
C381        C  0.04256994  0.14038766  0.85233710    -0.05500
C382        C  0.02351603  0.14697622  0.87462509     0.06700
C383        C  0.03016547  0.12814187  0.89715262     0.00500
H384        H  0.04447631  0.15112460  0.83137835     0.08200
H385        H  0.01990653  0.12686089  0.91839703     0.07200
N386        N  0.13261860  0.08342543  0.82369635    -0.36600
N387        N  0.14925629  0.06604489  0.83923686    -0.28800
C388        C  0.17269317  0.05923790  0.82337691    -0.04000
C389        C  0.17050537  0.07270258  0.79642420     0.04600
C390        C  0.14483096  0.08781950  0.79735073     0.02700
H391        H  0.18978666  0.04511317  0.83073664     0.07800
H392        H  0.13596086  0.10146773  0.78036811     0.06600
N393        N  0.80321549  0.03908889  0.92101199    -0.27800
N394        N  0.82862637  0.04765709  0.93072423    -0.35600
C395        C  0.83688117  0.03024202  0.95278536     0.00600
C396        C  0.81553452  0.00979403  0.95736537     0.06600
C397        C  0.79448115  0.01620295  0.93683893    -0.06500
H398        H  0.85706007  0.03224412  0.96444622     0.07300
H399        H  0.77480633  0.00436763  0.93281122     0.11700
Cu400      Cu  0.85140494  0.08186352  0.91260654     0.44200
Cu401      Cu  0.78334982  0.05635600  0.88421409     0.42000
Cu402      Cu  0.82820341  0.10414842  0.84067814     0.43900
N403        N  0.87059175  0.11510860  0.88914919    -0.35100
N404        N  0.86285669  0.12245671  0.86228802    -0.29400
C405        C  0.87994971  0.14398894  0.85282594    -0.05500
C406        C  0.89909053  0.15070324  0.87497478     0.06700
C407        C  0.89253217  0.13207366  0.89769330     0.00500
H408        H  0.87817789  0.15433355  0.83165362     0.08200
H409        H  0.90315422  0.13068713  0.91874311     0.07200
N410        N  0.78987453  0.08649682  0.82604009    -0.36600
N411        N  0.77268171  0.07043840  0.84241559    -0.28800
C412        C  0.74914986  0.06348779  0.82674068    -0.04000
C413        C  0.75190086  0.07543814  0.79907805     0.04600
C414        C  0.77797957  0.08984394  0.79941899     0.02700
H415        H  0.73172431  0.05006882  0.83464304     0.07800
H416        H  0.78744163  0.10223270  0.78177960     0.06600
N417        N  0.77295403  0.35422813  0.84334233    -0.27800
N418        N  0.79002329  0.33875069  0.82625619    -0.35600
C419        C  0.77743959  0.33584511  0.79983651     0.00600
C420        C  0.75108452  0.34983150  0.80049114     0.06600
C421        C  0.74889840  0.36108605  0.82846003    -0.06500
H422        H  0.78661574  0.32408971  0.78162538     0.07300
H423        H  0.73150682  0.37411433  0.83707494     0.08500
Cu424      Cu  0.82933901  0.32150752  0.83990303     0.44200
Cu425      Cu  0.78439352  0.36848859  0.88481148     0.42000
Cu426      Cu  0.85475445  0.34626157  0.91006959     0.43900
N427        N  0.86544608  0.30434810  0.86086028    -0.35100
N428        N  0.87401399  0.31278093  0.88712635    -0.29400
C429        C  0.89623279  0.29618517  0.89579810    -0.05500
C430        C  0.90219968  0.27658108  0.87378934     0.06700
C431        C  0.88236461  0.28243053  0.85190907     0.00500
H432        H  0.90718945  0.29822734  0.91661245     0.08200
H433        H  0.87978971  0.27095952  0.83144379     0.07200
N434        N  0.83126185  0.37948741  0.92895683    -0.36600
N435        N  0.80502407  0.38681169  0.92055739    -0.28800
C436        C  0.79591226  0.40913604  0.93696635    -0.04000
C437        C  0.81759352  0.41642981  0.95645861     0.04600
C438        C  0.83967712  0.39714545  0.95069917     0.02700
H439        H  0.77545717  0.41994218  0.93411076     0.07800
H440        H  0.86039677  0.39599715  0.96146508     0.06600
C441        C  0.79175728  0.47245219  0.01095543    -0.13800
C442        C  0.81775564  0.48536796  0.01974489     0.08300
C443        C  0.84364352  0.47562807  0.00721458    -0.13800
C444        C  0.84357725  0.45319012  0.98674704    -0.13800
C445        C  0.81759690  0.44027393  0.97803396     0.08300
C446        C  0.79166671  0.45028394  0.99015545    -0.13800
H447        H  0.77141913  0.47956276  0.01997993     0.12300
H448        H  0.86407572  0.48495567  0.01354916     0.12300
H449        H  0.86387402  0.44613923  0.97755392     0.12300
H450        H  0.77132357  0.44065023  0.98393413     0.12300
C451        C  0.84179130  0.95086119  0.00869978    -0.13800
C452        C  0.81574746  0.93887056  0.01857753     0.08300
C453        C  0.78969336  0.95037876  0.00820202    -0.13800
C454        C  0.78966218  0.97325069  0.98817942    -0.13800
C455        C  0.81567571  0.98549677  0.97854185     0.08300
C456        C  0.84175621  0.97413541  0.98911165    -0.13800
H457        H  0.86220501  0.94258120  0.01650385     0.12300
H458        H  0.76930897  0.94148271  0.01532710     0.12300
H459        H  0.76921300  0.98160567  0.98056690     0.12300
H460        H  0.86215713  0.98294592  0.98194960     0.12300
C461        C  0.10027088  0.49082717  0.99286628    -0.13800
C462        C  0.10257439  0.48249039  0.02237450     0.08300
C463        C  0.10419081  0.45297381  0.02923880    -0.13800
C464        C  0.10330214  0.43215925  0.00699281    -0.13800
C465        C  0.10184124  0.44056447  0.97746020     0.08300
C466        C  0.10041653  0.47006400  0.97058452    -0.13800
H467        H  0.09901532  0.51343112  0.98701981     0.12300
H468        H  0.10574818  0.44599504  0.05185348     0.12300
H469        H  0.10446713  0.40953401  0.01278242     0.12300
H470        H  0.09910125  0.47702923  0.94794692     0.12300
C471        C  0.13618683  0.94794794  0.00705192    -0.13800
C472        C  0.11031371  0.93849188  0.01971923     0.08300
C473        C  0.08442240  0.95197051  0.01177426    -0.13800
C474        C  0.08440198  0.97479365  0.99177438    -0.13800
C475        C  0.11021504  0.98418924  0.97884251     0.08300
C476        C  0.13610762  0.97039057  0.98652280    -0.13800
H477        H  0.15640553  0.93775207  0.01278543     0.12300
H478        H  0.06422537  0.94518779  0.02143248     0.12300
H479        H  0.06406686  0.98476088  0.98614445     0.12300
H480        H  0.15634893  0.97718451  0.97699912     0.12300
C481        C  0.67892404  0.57286818  0.23860730    -0.13800
C482        C  0.68752833  0.56959081  0.26789475     0.08300
C483        C  0.71702068  0.56814621  0.27451434    -0.13800
C484        C  0.73758374  0.57056246  0.25220096    -0.13800
C485        C  0.72893775  0.57344161  0.22286253     0.08300
C486        C  0.69943789  0.57427062  0.21622246    -0.13800
H487        H  0.65626847  0.57398921  0.23301294     0.12300
H488        H  0.72412396  0.56581950  0.29697097     0.12300
H489        H  0.76024772  0.56972051  0.25780249     0.12300
H490        H  0.69228699  0.57657433  0.19377823     0.12300
C491        C  0.23813740  0.57055992  0.24717274    -0.13800
C492        C  0.22964857  0.57409170  0.27647361     0.08300
C493        C  0.20018931  0.57618140  0.28308841    -0.13800
C494        C  0.17959257  0.57520387  0.26071902    -0.13800
C495        C  0.18803901  0.57110807  0.23147225     0.08300
C496        C  0.21748256  0.56858941  0.22491013    -0.13800
H497        H  0.26074835  0.56879324  0.24156992     0.12300
H498        H  0.19315687  0.57905313  0.30550254     0.12300
H499        H  0.15699911  0.57717763  0.26632604     0.12300
H500        H  0.22452405  0.56565081  0.20251100     0.12300
C501        C  0.72335511  0.85245282  0.27815879    -0.13800
C502        C  0.69357678  0.85223440  0.27280217     0.08300
C503        C  0.68372714  0.85293470  0.24372212    -0.13800
C504        C  0.70329965  0.85373012  0.22039932    -0.13800
C505        C  0.73308085  0.85295623  0.22572760     0.08300
C506        C  0.74291997  0.85237662  0.25482684    -0.13800
H507        H  0.73149076  0.85186229  0.30037058     0.12300
H508        H  0.66085446  0.85301342  0.23903535     0.12300
H509        H  0.69514794  0.85409557  0.19819223     0.12300
H510        H  0.76578309  0.85197855  0.25954036     0.12300
C511        C  0.20221677  0.84971372  0.27939557    -0.13800
C512        C  0.23189959  0.85163531  0.27385544     0.08300
C513        C  0.24148165  0.85400901  0.24477331    -0.13800
C514        C  0.22173601  0.85439690  0.22162348    -0.13800
C515        C  0.19210594  0.85157668  0.22710712     0.08300
C516        C  0.18252652  0.84926321  0.25619794    -0.13800
H517        H  0.19430181  0.84778036  0.30161234     0.12300
H518        H  0.26426525  0.85573377  0.23995631     0.12300
H519        H  0.22968265  0.85614034  0.19940324     0.12300
H520        H  0.15976507  0.84729817  0.26101876     0.12300
C521        C  0.73871629  0.35731865  0.74761342    -0.13800
C522        C  0.72978966  0.35222726  0.77655828     0.08300
C523        C  0.70030295  0.34912741  0.78251333    -0.13800
C524        C  0.68015466  0.35007370  0.75976399    -0.13800
C525        C  0.68902174  0.35514836  0.73080779     0.08300
C526        C  0.71843527  0.35927269  0.72496606    -0.13800
H527        H  0.76136848  0.36000414  0.74257689     0.12300
H528        H  0.69293980  0.34517793  0.80465203     0.12300
H529        H  0.65755750  0.34698740  0.76481900     0.12300
H530        H  0.72577393  0.36313060  0.70280540     0.12300
C531        C  0.60320766  0.47013001  0.52874340    -0.13800
C532        C  0.60185525  0.44059946  0.52189874     0.08300
C533        C  0.60042219  0.43222347  0.49235706    -0.13800
C534        C  0.60095304  0.45299357  0.47006224    -0.13800
C535        C  0.60193976  0.48251327  0.47694032     0.08300
C536        C  0.60276666  0.49092536  0.50647615    -0.13800
H537        H  0.60418547  0.47715324  0.55137353     0.12300
H538        H  0.59949125  0.40961361  0.48651498     0.12300
H539        H  0.60016061  0.44600775  0.44740977     0.12300
H540        H  0.60364562  0.51355001  0.51228107     0.12300
C541        C  0.20033271  0.34821461  0.71670891    -0.13800
C542        C  0.22990648  0.35048415  0.72262209     0.08300
C543        C  0.23901275  0.35481318  0.75163619    -0.13800
C544        C  0.21885731  0.35695751  0.77435733    -0.13800
C545        C  0.18933678  0.35384044  0.76853202     0.08300
C546        C  0.18026326  0.34939826  0.73953284    -0.13800
H547        H  0.19281071  0.34480375  0.69453855     0.12300
H548        H  0.26172675  0.35681913  0.75668675     0.12300
H549        H  0.22635616  0.36024567  0.79655329     0.12300
H550        H  0.15757748  0.34703852  0.73450078     0.12300
C551        C  0.34420503  0.45197594  0.51193040    -0.13800
C552        C  0.31822078  0.43957099  0.52147893     0.08300
C553        C  0.29217406  0.45034180  0.51023964    -0.13800
C554        C  0.29213102  0.47268031  0.48956513    -0.13800
C555        C  0.31811002  0.48508785  0.48001321     0.08300
C556        C  0.34414138  0.47461991  0.49160531    -0.13800
H557        H  0.36462823  0.44438343  0.52035853     0.12300
H558        H  0.27179554  0.44119572  0.51705208     0.12300
H559        H  0.27170163  0.48038134  0.48125162     0.12300
H560        H  0.36454730  0.48356556  0.48461945     0.12300
C561        C  0.68230037  0.07277733  0.75625414    -0.13800
C562        C  0.69238275  0.07156388  0.72728717     0.08300
C563        C  0.72216178  0.07079070  0.72208378    -0.13800
C564        C  0.74155148  0.07214358  0.74547002    -0.13800
C565        C  0.73145476  0.07341088  0.77443829     0.08300
C566        C  0.70167929  0.07327271  0.77966828    -0.13800
H567        H  0.65940058  0.07322484  0.76078539     0.12300
H568        H  0.73042597  0.06998562  0.69992657     0.12300
H569        H  0.76445358  0.07202611  0.74093051     0.12300
H570        H  0.69341158  0.07433917  0.80181238     0.12300
C571        C  0.58661688  0.97611073  0.50626226    -0.13800
C572        C  0.61261146  0.98559441  0.51871332     0.08300
C573        C  0.63837385  0.97168108  0.51086262    -0.13800
C574        C  0.63814274  0.94886880  0.49081183    -0.13800
C575        C  0.61209458  0.93915417  0.47874812     0.08300
C576        C  0.58632637  0.95291218  0.48670723    -0.13800
H577        H  0.56638798  0.98624452  0.51203265     0.12300
H578        H  0.65873634  0.97860384  0.51998176     0.12300
H579        H  0.65829519  0.93854060  0.48505587     0.12300
H580        H  0.56599324  0.94601291  0.47748708     0.12300
C581        C  0.20150533  0.06958629  0.71988243    -0.13800
C582        C  0.23116678  0.07151150  0.72553302     0.08300
C583        C  0.24074002  0.07304799  0.75467303    -0.13800
C584        C  0.22100172  0.07267268  0.77778375    -0.13800
C585        C  0.19133503  0.07165701  0.77208413     0.08300
C586        C  0.18171811  0.07012437  0.74298183    -0.13800
H587        H  0.19361048  0.06847815  0.69760466     0.12300
H588        H  0.26352895  0.07435399  0.75958922     0.12300
H589        H  0.22885996  0.07394434  0.80007167     0.12300
H590        H  0.15889318  0.06913505  0.73814328     0.12300
C591        C  0.34235470  0.97235850  0.50984070    -0.13800
C592        C  0.31647167  0.98472080  0.51963388     0.08300
C593        C  0.29028849  0.97400582  0.50873608    -0.13800
C594        C  0.28996175  0.95140159  0.48843658    -0.13800
C595        C  0.31579439  0.93863865  0.47902943     0.08300
C596        C  0.34201132  0.94934698  0.48996729    -0.13800
H597        H  0.36285006  0.98006513  0.51800873     0.12300
H598        H  0.27002287  0.98325127  0.51575832     0.12300
H599        H  0.26942168  0.94359164  0.48050633     0.12300
H600        H  0.36229743  0.94016233  0.48295410     0.12300
loop_ 
_geom_bond_atom_site_label_1 
_geom_bond_atom_site_label_2 
_geom_bond_distance 
_geom_bond_site_symmetry_2 
_ccdc_geom_bond_type 
N1            N2   1.322       .  A
N1            C5   1.345       .  A
N1           Cu9   2.076       .  S
N2            C3   1.347       .  A
N2           Cu8   2.081       .  S
C3            C4   1.386       .  A
C3            H6   1.082       .  S
C4            C5   1.385       .  A
C4          C592   1.481   1_545  S
C5            H7   1.082       .  S
Cu8          N11   2.081       .  S
Cu9          N19   2.076       .  S
Cu10         N12   2.076       .  S
Cu10         N18   2.076       .  S
N11          N12   1.322       .  A
N11          C15   1.346       .  A
N12          C13   1.347       .  A
C13          C14   1.384       .  A
C13          H16   1.082       .  S
C14          C15   1.384       .  A
C14          C37   1.472       .  S
C15          H17   1.082       .  S
N18          N19   1.323       .  A
N18          C22   1.344       .  A
N19          C20   1.346       .  A
C20          C21   1.385       .  A
C20          H23   1.082       .  S
C21          C22   1.383       .  A
C21         C582   1.477       .  S
C22          H24   1.082       .  S
O25         Cu33   2.016       .  S
O25          C35   1.278       .  A
O26         Cu33   2.013       .  S
O26          C36   1.277       .  A
O27         Cu33   2.012       .  S
O27          C37   1.278       .  A
O28         Cu33   2.011       .  S
O28          C38   1.277       .  A
O29         Cu34   2.019       .  S
O29          C38   1.279       .  A
O30         Cu34   2.020       .  S
O30          C37   1.279       .  A
O31         Cu34   2.018       .  S
O31          C36   1.279       .  A
O32         Cu34   2.020       .  S
O32          C35   1.278       .  A
Cu33        Cu34   2.375       .  S
C35          C76   1.474       .  S
C36          C52   1.472       .  S
C38         C100   1.472       .  S
N39          N40   1.322       .  A
N39          C43   1.346       .  A
N39         Cu47   2.072       .  S
N40          C41   1.344       .  A
N40         Cu46   2.074       .  S
C41          C42   1.383       .  A
C41          H44   1.082       .  S
C42          C43   1.384       .  A
C42         C562   1.475       .  S
C43          H45   1.082       .  S
Cu46         N49   2.074       .  S
Cu47         N57   2.072       .  S
Cu48         N50   2.080       .  S
Cu48         N56   2.080       .  S
N49          N50   1.322       .  A
N49          C53   1.346       .  A
N50          C51   1.347       .  A
C51          C52   1.385       .  A
C51          H54   1.082       .  S
C52          C53   1.383       .  A
C53          H55   1.082       .  S
N56          N57   1.322       .  A
N56          C60   1.345       .  A
N57          C58   1.345       .  A
C58          C59   1.385       .  A
C58          H61   1.082       .  S
C59          C60   1.386       .  A
C59         C572   1.480   1_545  S
C60          H62   1.081       .  S
N63          N64   1.323       .  A
N63          C67   1.346       .  A
N63         Cu71   2.079       .  S
N64          C65   1.346       .  A
N64         Cu70   2.083       .  S
C65          C66   1.384       .  A
C65          H68   1.082       .  S
C66          C67   1.384       .  A
C66         C542   1.478       .  S
C67          H69   1.082       .  S
Cu70         N73   2.083       .  S
Cu71         N81   2.079       .  S
Cu72         N74   2.082       .  S
Cu72         N80   2.082       .  S
N73          N74   1.323       .  A
N73          C77   1.348       .  A
N74          C75   1.346       .  A
C75          C76   1.384       .  A
C75          H78   1.082       .  S
C76          C77   1.385       .  A
C77          H79   1.082       .  S
N80          N81   1.322       .  A
N80          C84   1.346       .  A
N81          C82   1.346       .  A
C82          C83   1.387       .  A
C82          H85   1.082       .  S
C83          C84   1.388       .  A
C83         C552   1.485       .  S
C84          H86   1.082       .  S
N87          N88   1.323       .  A
N87          C91   1.346       .  A
N87         Cu95   2.082       .  S
N88          C89   1.347       .  A
N88         Cu94   2.084       .  S
C89          C90   1.385       .  A
C89          H92   1.083       .  S
C90          C91   1.385       .  A
C90         C532   1.481       .  S
C91          H93   1.081       .  S
Cu94         N97   2.083       .  S
Cu95        N105   2.082       .  S
Cu96         N98   2.076       .  S
Cu96        N104   2.076       .  S
N97          N98   1.323       .  A
N97         C101   1.347       .  A
N98          C99   1.346       .  A
C99         C100   1.383       .  A
C99         H102   1.082       .  S
C100        C101   1.385       .  A
C101        H103   1.082       .  S
N104        N105   1.322       .  A
N104        C108   1.344       .  A
N105        C106   1.348       .  A
C106        C107   1.386       .  A
C106        H109   1.082       .  S
C107        C108   1.383       .  A
C107        C525   1.479       .  S
C108        H110   1.082       .  S
N111        N112   1.323       .  A
N111        C115   1.346       .  A
N111       Cu119   2.079       .  S
N112        C113   1.345       .  A
N112       Cu118   2.081       .  S
C113        C114   1.385       .  A
C113        H116   1.082       .  S
C114        C115   1.385       .  A
C114        C512   1.479       .  S
C115        H117   1.082       .  S
Cu118       N121   2.081       .  S
Cu119       N129   2.079       .  S
Cu120       N122   2.075       .  S
Cu120       N128   2.075       .  S
N121        N122   1.322       .  A
N121        C125   1.347       .  A
N122        C123   1.345       .  A
C123        C124   1.383       .  A
C123        H126   1.082       .  S
C124        C125   1.385       .  A
C124        C145   1.472       .  S
C125        H127   1.082       .  S
N128        N129   1.322       .  A
N128        C132   1.345       .  A
N129        C130   1.346       .  A
C130        C131   1.387       .  A
C130        H133   1.082       .  S
C131        C132   1.386       .  A
C131        C595   1.483       .  S
C132        H134   1.082       .  S
O135       Cu143   2.018       .  S
O135        C145   1.278       .  A
O136       Cu143   2.017       .  S
O136        C146   1.279       .  A
O137       Cu143   2.014       .  S
O137        C147   1.277       .  A
O138       Cu143   2.012       .  S
O138        C148   1.277       .  A
O139       Cu144   2.018       .  S
O139        C148   1.278       .  A
O140       Cu144   2.019       .  S
O140        C147   1.279       .  A
O141       Cu144   2.012       .  S
O141        C146   1.277       .  A
O142       Cu144   2.012       .  S
O142        C145   1.278       .  A
Cu143      Cu144   2.375       .  S
C146        C210   1.472       .  S
C147        C186   1.473       .  S
C148        C162   1.471       .  S
N149        N150   1.322       .  A
N149        C153   1.346       .  A
N149       Cu157   2.075       .  S
N150        C151   1.346       .  A
N150       Cu156   2.084       .  S
C151        C152   1.386       .  A
C151        H154   1.082       .  S
C152        C153   1.385       .  A
C152        C502   1.480       .  S
C153        H155   1.082       .  S
Cu156       N159   2.084       .  S
Cu157       N167   2.075       .  S
Cu158       N160   2.073       .  S
Cu158       N166   2.073       .  S
N159        N160   1.323       .  A
N159        C163   1.346       .  A
N160        C161   1.346       .  A
C161        C162   1.383       .  A
C161        H164   1.082       .  S
C162        C163   1.384       .  A
C163        H165   1.082       .  S
N166        N167   1.322       .  A
N166        C170   1.344       .  A
N167        C168   1.345       .  A
C168        C169   1.384       .  A
C168        H171   1.081       .  S
C169        C170   1.384       .  A
C169        C575   1.476       .  S
C170        H172   1.082       .  S
N173        N174   1.322       .  A
N173        C177   1.346       .  A
N173       Cu181   2.081       .  S
N174        C175   1.346       .  A
N174       Cu180   2.076       .  S
C175        C176   1.387       .  A
C175        H178   1.082       .  S
C176        C177   1.388       .  A
C176        C555   1.485       .  S
C177        H179   1.082       .  S
Cu180       N183   2.076       .  S
Cu181       N191   2.081       .  S
Cu182       N184   2.086       .  S
Cu182       N190   2.086       .  S
N183        N184   1.323       .  A
N183        C187   1.346       .  A
N184        C185   1.348       .  A
C185        C186   1.385       .  A
C185        H188   1.082       .  S
C186        C187   1.383       .  A
C187        H189   1.082       .  S
N190        N191   1.323       .  A
N190        C194   1.347       .  A
N191        C192   1.346       .  A
C192        C193   1.384       .  A
C192        H195   1.082       .  S
C193        C194   1.385       .  A
C193        C492   1.479       .  S
C194        H196   1.082       .  S
N197        N198   1.322       .  A
N197        C201   1.348       .  A
N197       Cu205   2.082       .  S
N198        C199   1.344       .  A
N198       Cu204   2.073       .  S
C199        C200   1.383       .  A
C199        H202   1.082       .  S
C200        C201   1.386       .  A
C200        C482   1.477       .  S
C201        H203   1.082       .  S
Cu204       N207   2.074       .  S
Cu205       N215   2.082       .  S
Cu206       N208   2.082       .  S
Cu206       N214   2.082       .  S
N207        N208   1.323       .  A
N207        C211   1.346       .  A
N208        C209   1.347       .  A
C209        C210   1.385       .  A
C209        H212   1.082       .  S
C210        C211   1.383       .  A
C211        H213   1.082       .  S
N214        N215   1.323       .  A
N214        C218   1.346       .  A
N215        C216   1.346       .  A
C216        C217   1.385       .  A
C216        H219   1.081       .  S
C217        C218   1.384       .  A
C217        C535   1.479       .  S
C218        H220   1.083       .  S
O221       Cu229   2.015       .  S
O221        C231   1.279       .  A
O222       Cu229   2.016       .  S
O222        C232   1.278   1_655  A
O223       Cu229   2.009       .  S
O223        C233   1.277   1_655  A
O224       Cu229   2.011       .  S
O224        C234   1.277       .  A
O225       Cu230   2.019       .  S
O225        C234   1.279       .  A
O226       Cu230   2.016       .  S
O226        C233   1.279   1_655  A
O227       Cu230   2.009       .  S
O227        C232   1.277   1_655  A
O228       Cu230   2.008       .  S
O228        C231   1.277       .  A
Cu229      Cu230   2.376       .  S
C231        C320   1.469       .  S
C232        C248   1.470       .  S
C233        C272   1.470       .  S
C234        C296   1.472       .  S
N235        N236   1.322       .  A
N235        C239   1.345       .  A
N235       Cu243   2.074       .  S
N236        C237   1.344       .  A
N236       Cu242   2.074       .  S
C237        C238   1.384       .  A
C237        H240   1.082       .  S
C238        C239   1.383       .  A
C238        C472   1.475       .  S
C239        H241   1.082       .  S
Cu242       N245   2.074       .  S
Cu243       N253   2.074       .  S
Cu244       N246   2.080       .  S
Cu244       N252   2.080       .  S
N245        N246   1.322       .  A
N245        C249   1.346       .  A
N246        C247   1.346       .  A
C247        C248   1.384       .  A
C247        H250   1.082       .  S
C248        C249   1.383       .  A
C249        H251   1.082       .  S
N252        N253   1.322       .  A
N252        C256   1.345       .  A
N253        C254   1.346       .  A
C254        C255   1.385       .  A
C254        H257   1.082       .  S
C255        C256   1.385       .  A
C255        C515   1.479       .  S
C256        H258   1.082       .  S
N259        N260   1.323       .  A
N259        C263   1.348       .  A
N259       Cu267   2.087       .  S
N260        C261   1.345       .  A
N260       Cu266   2.078       .  S
C261        C262   1.384       .  A
C261        H264   1.083       .  S
C262        C263   1.387       .  A
C262        C462   1.481       .  S
C263        H265   1.081       .  S
Cu266       N269   2.078       .  S
Cu267       N277   2.087       .  S
Cu268       N270   2.073       .  S
Cu268       N276   2.073       .  S
N269        N270   1.322       .  A
N269        C273   1.346       .  A
N270        C271   1.345       .  A
C271        C272   1.382       .  A
C271        H274   1.082       .  S
C272        C273   1.384       .  A
C273        H275   1.082       .  S
N276        N277   1.323       .  A
N276        C280   1.345       .  A
N277        C278   1.347       .  A
C278        C279   1.386       .  A
C278        H281   1.082       .  S
C279        C280   1.384       .  A
C279        C495   1.480       .  S
C280        H282   1.082       .  S
N283        N284   1.323       .  A
N283        C287   1.345       .  A
N283       Cu291   2.080       .  S
N284        C285   1.347       .  A
N284       Cu290   2.081       .  S
C285        C286   1.386       .  A
C285        H288   1.082       .  S
C286        C287   1.385       .  A
C286        C452   1.482       .  S
C287        H289   1.082       .  S
Cu290       N293   2.081       .  S
Cu291       N301   2.081       .  S
Cu292       N294   2.079       .  S
Cu292       N300   2.079       .  S
N293        N294   1.323       .  A
N293        C297   1.346       .  A
N294        C295   1.347       .  A
C295        C296   1.384       .  A
C295        H298   1.082       .  S
C296        C297   1.384       .  A
C297        H299   1.082       .  S
N300        N301   1.322       .  A
N300        C304   1.345       .  A
N301        C302   1.347       .  A
C302        C303   1.386       .  A
C302        H305   1.082       .  S
C303        C304   1.385       .  A
C303        C505   1.481       .  S
C304        H306   1.082       .  S
N307        N308   1.323       .  A
N307        C311   1.345       .  A
N307       Cu315   2.077       .  S
N308        C309   1.346       .  A
N308       Cu314   2.081       .  S
C309        C310   1.384       .  A
C309        H312   1.082       .  S
C310        C311   1.384       .  A
C310        C485   1.477       .  S
C311        H313   1.082       .  S
Cu314       N317   2.080       .  S
Cu315       N325   2.076       .  S
Cu316       N318   2.071       .  S
Cu316       N324   2.071       .  S
N317        N318   1.323       .  A
N317        C321   1.347       .  A
N318        C319   1.345       .  A
C319        C320   1.381       .  A
C319        H322   1.082       .  S
C320        C321   1.384       .  A
C321        H323   1.082       .  S
N324        N325   1.321       .  A
N324        C328   1.344       .  A
N325        C326   1.345       .  A
C326        C327   1.388       .  A
C326        H329   1.081       .  S
C327        C328   1.387       .  A
C327        C442   1.484       .  S
C328        H330   1.081       .  S
O331       Cu339   2.010       .  S
O331        C341   1.277   1_655  A
O332       Cu339   2.013       .  S
O332        C342   1.277       .  A
O333       Cu339   2.017       .  S
O333        C343   1.279   1_655  A
O334       Cu339   2.014       .  S
O334        C344   1.278       .  A
O335       Cu340   2.004       .  S
O335        C344   1.277       .  A
O336       Cu340   2.007       .  S
O336        C343   1.277   1_655  A
O337       Cu340   2.020       .  S
O337        C342   1.279       .  A
O338       Cu340   2.015       .  S
O338        C341   1.278   1_655  A
Cu339      Cu340   2.376       .  S
C341        C382   1.469       .  S
C342        C430   1.473       .  S
C343        C358   1.470       .  S
C344        C406   1.467       .  S
N345        N346   1.323       .  A
N345        C349   1.347       .  A
N345       Cu353   2.087       .  S
N346        C347   1.347       .  A
N346       Cu352   2.081       .  S
C347        C348   1.384       .  A
C347        H350   1.083       .  S
C348        C349   1.385       .  A
C348        C465   1.479       .  S
C349        H351   1.081       .  S
Cu352       N355   2.080       .  S
Cu353       N363   2.087       .  S
Cu354       N356   2.071       .  S
Cu354       N362   2.071       .  S
N355        N356   1.322       .  A
N355        C359   1.346       .  A
N356        C357   1.346       .  A
C357        C358   1.382       .  A
C357        H360   1.082       .  S
C358        C359   1.384       .  A
C359        H361   1.082       .  S
N362        N363   1.323       .  A
N362        C366   1.344       .  A
N363        C364   1.348       .  A
C364        C365   1.387       .  A
C364        H367   1.082       .  S
C365        C366   1.382       .  A
C365        C545   1.478       .  S
C366        H368   1.082       .  S
N369        N370   1.322       .  A
N369        C373   1.345       .  A
N369       Cu377   2.070       .  S
N370        C371   1.344       .  A
N370       Cu376   2.076       .  S
C371        C372   1.387       .  A
C371        H374   1.081       .  S
C372        C373   1.385       .  A
C372        C475   1.481   1_545  S
C373        H375   1.082       .  S
Cu376       N379   2.076       .  S
Cu377       N387   2.070       .  S
Cu378       N380   2.075       .  S
Cu378       N386   2.075       .  S
N379        N380   1.323       .  A
N379        C383   1.346       .  A
N380        C381   1.345       .  A
C381        C382   1.383       .  A
C381        H384   1.082       .  S
C382        C383   1.383       .  A
C383        H385   1.082       .  S
N386        N387   1.322       .  A
N386        C390   1.345       .  A
N387        C388   1.345       .  A
C388        C389   1.383       .  A
C388        H391   1.082       .  S
C389        C390   1.383       .  A
C389        C585   1.474       .  S
C390        H392   1.082       .  S
N393        N394   1.322       .  A
N393        C397   1.345       .  A
N393       Cu401   2.076       .  S
N394        C395   1.346       .  A
N394       Cu400   2.076       .  S
C395        C396   1.387       .  A
C395        H398   1.082       .  S
C396        C397   1.386       .  A
C396        C455   1.483   1_545  S
C397        H399   1.081       .  S
Cu400       N403   2.076       .  S
Cu401       N411   2.076       .  S
Cu402       N404   2.070       .  S
Cu402       N410   2.070       .  S
N403        N404   1.322       .  A
N403        C407   1.345       .  A
N404        C405   1.346       .  A
C405        C406   1.382       .  A
C405        H408   1.082       .  S
C406        C407   1.383       .  A
C407        H409   1.082       .  S
N410        N411   1.322       .  A
N410        C414   1.344       .  A
N411        C412   1.345       .  A
C412        C413   1.384       .  A
C412        H415   1.082       .  S
C413        C414   1.383       .  A
C413        C565   1.475       .  S
C414        H416   1.082       .  S
N417        N418   1.323       .  A
N417        C421   1.346       .  A
N417       Cu425   2.075       .  S
N418        C419   1.347       .  A
N418       Cu424   2.088       .  S
C419        C420   1.385       .  A
C419        H422   1.082       .  S
C420        C421   1.383       .  A
C420        C522   1.478       .  S
C421        H423   1.082       .  S
Cu424       N427   2.088       .  S
Cu425       N435   2.074       .  S
Cu426       N428   2.075       .  S
Cu426       N434   2.075       .  S
N427        N428   1.323       .  A
N427        C431   1.347       .  A
N428        C429   1.346       .  A
C429        C430   1.383       .  A
C429        H432   1.082       .  S
C430        C431   1.385       .  A
C431        H433   1.082       .  S
N434        N435   1.322       .  A
N434        C438   1.345       .  A
N435        C436   1.346       .  A
C436        C437   1.386       .  A
C436        H439   1.082       .  S
C437        C438   1.385       .  A
C437        C445   1.480       .  S
C438        H440   1.082       .  S
C441        C442   1.406       .  A
C441        C446   1.399   1_554  A
C441        H447   1.082       .  S
C442        C443   1.406       .  A
C443        C444   1.398   1_554  A
C443        H448   1.082       .  S
C444        C445   1.404       .  A
C444        H449   1.082       .  S
C445        C446   1.404       .  A
C446        H450   1.083       .  S
C451        C452   1.405       .  A
C451        C456   1.400   1_554  A
C451        H457   1.083       .  S
C452        C453   1.404       .  A
C453        C454   1.399   1_554  A
C453        H458   1.082       .  S
C454        C455   1.405       .  A
C454        H459   1.083       .  S
C455        C456   1.406       .  A
C456        H460   1.082       .  S
C461        C462   1.405   1_556  A
C461        C466   1.400       .  A
C461        H467   1.082       .  S
C462        C463   1.405       .  A
C463        C464   1.401       .  A
C463        H468   1.084       .  S
C464        C465   1.405   1_554  A
C464        H469   1.082       .  S
C465        C466   1.403       .  A
C466        H470   1.084       .  S
C471        C472   1.403       .  A
C471        C476   1.399   1_554  A
C471        H477   1.083       .  S
C472        C473   1.403       .  A
C473        C474   1.396   1_554  A
C473        H478   1.083       .  S
C474        C475   1.405       .  A
C474        H479   1.082       .  S
C475        C476   1.406       .  A
C476        H480   1.082       .  S
C481        C482   1.404       .  A
C481        C486   1.398       .  A
C481        H487   1.084       .  S
C482        C483   1.404       .  A
C483        C484   1.401       .  A
C483        H488   1.082       .  S
C484        C485   1.405       .  A
C484        H489   1.084       .  S
C485        C486   1.404       .  A
C486        H490   1.082       .  S
C491        C492   1.404       .  A
C491        C496   1.401       .  A
C491        H497   1.084       .  S
C492        C493   1.404       .  A
C493        C494   1.400       .  A
C493        H498   1.082       .  S
C494        C495   1.404       .  A
C494        H499   1.084       .  S
C495        C496   1.405       .  A
C496        H500   1.082       .  S
C501        C502   1.404       .  A
C501        C506   1.400       .  A
C501        H507   1.082       .  S
C502        C503   1.405       .  A
C503        C504   1.400       .  A
C503        H508   1.084       .  S
C504        C505   1.405       .  A
C504        H509   1.082       .  S
C505        C506   1.405       .  A
C506        H510   1.084       .  S
C511        C512   1.404       .  A
C511        C516   1.399       .  A
C511        H517   1.082       .  S
C512        C513   1.404       .  A
C513        C514   1.399       .  A
C513        H518   1.084       .  S
C514        C515   1.405       .  A
C514        H519   1.082       .  S
C515        C516   1.405       .  A
C516        H520   1.083       .  S
C521        C522   1.405       .  A
C521        C526   1.402       .  A
C521        H527   1.084       .  S
C522        C523   1.403       .  A
C523        C524   1.399       .  A
C523        H528   1.082       .  S
C524        C525   1.404       .  A
C524        H529   1.084       .  S
C525        C526   1.405       .  A
C526        H530   1.082       .  S
C531        C532   1.405       .  A
C531        C536   1.400       .  A
C531        H537   1.084       .  S
C532        C533   1.405       .  A
C533        C534   1.400       .  A
C533        H538   1.082       .  S
C534        C535   1.404       .  A
C534        H539   1.084       .  S
C535        C536   1.404       .  A
C536        H540   1.082       .  S
C541        C542   1.404       .  A
C541        C546   1.399       .  A
C541        H547   1.082       .  S
C542        C543   1.405       .  A
C543        C544   1.401       .  A
C543        H548   1.084       .  S
C544        C545   1.404       .  A
C544        H549   1.082       .  S
C545        C546   1.405       .  A
C546        H550   1.084       .  S
C551        C552   1.406       .  A
C551        C556   1.400       .  A
C551        H557   1.082       .  S
C552        C553   1.405       .  A
C553        C554   1.400       .  A
C553        H558   1.082       .  S
C554        C555   1.405       .  A
C554        H559   1.082       .  S
C555        C556   1.406       .  A
C556        H560   1.082       .  S
C561        C562   1.404       .  A
C561        C566   1.398       .  A
C561        H567   1.084       .  S
C562        C563   1.404       .  A
C563        C564   1.398       .  A
C563        H568   1.082       .  S
C564        C565   1.404       .  A
C564        H569   1.084       .  S
C565        C566   1.403       .  A
C566        H570   1.082       .  S
C571        C572   1.405       .  A
C571        C576   1.397       .  A
C571        H577   1.083       .  S
C572        C573   1.406       .  A
C573        C574   1.398       .  A
C573        H578   1.082       .  S
C574        C575   1.403       .  A
C574        H579   1.084       .  S
C575        C576   1.404       .  A
C576        H580   1.082       .  S
C581        C582   1.404       .  A
C581        C586   1.399       .  A
C581        H587   1.082       .  S
C582        C583   1.404       .  A
C583        C584   1.398       .  A
C583        H588   1.084       .  S
C584        C585   1.403       .  A
C584        H589   1.083       .  S
C585        C586   1.403       .  A
C586        H590   1.084       .  S
C591        C592   1.405       .  A
C591        C596   1.400       .  A
C591        H597   1.083       .  S
C592        C593   1.404       .  A
C593        C594   1.399       .  A
C593        H598   1.083       .  S
C594        C595   1.405       .  A
C594        H599   1.083       .  S
C595        C596   1.406       .  A
C596        H600   1.082       .  S
