geometry optimzed in LAMMPS
_audit_creation_date              2020-11-30 
_audit_creation_method            'lammps2cif' 
_symmetry_space_group_name_H-M    'P1' 
_symmetry_Int_Tables_number       1 
_symmetry_cell_setting            triclinic 
loop_ 
_symmetry_equiv_pos_as_xyz 
  x,y,z 
_cell_length_a                    27.39713114 
_cell_length_b                    27.953918630883543 
_cell_length_c                    23.633915491683993 
_cell_angle_alpha                 91.58254373179574 
_cell_angle_beta                  91.68957579486077 
_cell_angle_gamma                 90.08702014268829 
loop_ 
_atom_site_label 
_atom_site_type_symbol 
_atom_site_fract_x 
_atom_site_fract_y 
_atom_site_fract_z 
_atom_site_charge 
C1          C  0.34193170  0.12940475  0.28868704     0.81000
N2          N  0.34133250  0.09132997  0.25211872    -0.77300
C3          C  0.31296844  0.05294818  0.26143033     0.83400
N4          N  0.28473181  0.05238793  0.30746943    -0.77300
C5          C  0.28383375  0.09092321  0.34363407     0.83500
N6          N  0.31290417  0.12943064  0.33464612    -0.79000
O7          O  0.46130915  0.22832276  0.26839527    -0.72200
O8          O  0.58109825  0.31256353  0.25813518    -0.73200
O9          O  0.56383312  0.21132508  0.25788525    -0.61800
O10         O  0.47988299  0.32810290  0.26446663    -0.70200
O11         O  0.48597479  0.33099742  0.35834496    -0.69700
O12         O  0.57333080  0.21250666  0.35142352    -0.61000
O13         O  0.58819011  0.31293182  0.35201778    -0.73500
O14         O  0.47064504  0.23083342  0.36204684    -0.72300
Cu15       Cu  0.52129114  0.26977661  0.25897026     1.04600
Cu16       Cu  0.52983984  0.27175665  0.35924626     1.04300
C17         C  0.44676789  0.21726921  0.31744507     0.94000
C18         C  0.60269170  0.32668678  0.30444273     0.93200
C19         C  0.58271547  0.19381619  0.30271242     0.85300
C20         C  0.46950278  0.34805650  0.31166951     0.91600
C21         C  0.68791724  0.10384621  0.32906629     0.81000
N22         N  0.68888036  0.07323299  0.28292408    -0.77300
C23         C  0.72675329  0.04184424  0.27683322     0.83400
N24         N  0.76299650  0.04079733  0.31737990    -0.77300
C25         C  0.76183073  0.07081456  0.36349999     0.83500
N26         N  0.72441648  0.10209630  0.36906227    -0.79000
C27         C  0.37281090  0.44279386  0.34790754     0.81000
N28         N  0.33553846  0.44335966  0.38445127    -0.77300
C29         C  0.29847875  0.47506557  0.37848378     0.83400
N30         N  0.29825848  0.50625823  0.33557916    -0.77300
C31         C  0.33550925  0.50646611  0.29905187     0.83500
N32         N  0.37298276  0.47482444  0.30532174    -0.79000
C33         C  0.68240892  0.43488165  0.27610601     0.81000
N34         N  0.68012327  0.47282501  0.24153545    -0.77300
C35         C  0.71027816  0.51094636  0.25130473     0.83400
N36         N  0.74323497  0.51096776  0.29539268    -0.77300
C37         C  0.74579128  0.47306685  0.32996353     0.83500
N38         N  0.71577181  0.43496450  0.31984926    -0.79000
C39         C  0.35279661  0.93927905  0.19647113     0.81000
N40         N  0.32388454  0.93693706  0.14849165    -0.77300
C41         C  0.29115840  0.97241512  0.13795934     0.83400
N42         N  0.28726674  0.00978459  0.17522941    -0.77300
C43         C  0.31525213  0.01154418  0.22333652     0.83500
N44         N  0.34797536  0.97643889  0.23391356    -0.79000
O45         O  0.57887312  0.83306689  0.15675792    -0.72200
O46         O  0.47825492  0.72792837  0.13897777    -0.73200
O47         O  0.47601451  0.82850836  0.13531348    -0.61800
O48         O  0.58076205  0.73149298  0.15853245    -0.70200
O49         O  0.57074944  0.73435725  0.25138580    -0.69700
O50         O  0.46419854  0.83242591  0.22785726    -0.61000
O51         O  0.46872361  0.73130214  0.23198539    -0.73500
O52         O  0.56695044  0.83683944  0.24925863    -0.72300
Cu53       Cu  0.52902518  0.78022961  0.14423496     1.04600
Cu54       Cu  0.51737674  0.78399014  0.24341783     1.04300
C55         C  0.58852959  0.85164680  0.20595007     0.94000
C56         C  0.45781588  0.71306329  0.18313295     0.93200
C57         C  0.45285746  0.84510096  0.17748767     0.85300
C58         C  0.59172352  0.71670148  0.20793321     0.91600
C59         C  0.69458538  0.93800989  0.18150902     0.81000
N60         N  0.69214301  0.97275557  0.22290462    -0.77300
C61         C  0.72760891  0.00682016  0.22875213     0.83400
N62         N  0.76566944  0.00594540  0.19269657    -0.77300
C63         C  0.76819966  0.97108848  0.15130680     0.83500
N64         N  0.73254354  0.93751525  0.14598038    -0.79000
C65         C  0.37089614  0.61205255  0.21898896     0.81000
N66         N  0.33419586  0.61393413  0.17922168    -0.77300
C67         C  0.29832258  0.58042428  0.17722776     0.83400
N68         N  0.29939379  0.54455311  0.21510435    -0.77300
C69         C  0.33602796  0.54265613  0.25518705     0.83500
N70         N  0.37154121  0.57656745  0.25706267    -0.79000
C71         C  0.68740363  0.62124981  0.17181533     0.81000
N72         N  0.72142782  0.61653383  0.13140487    -0.77300
C73         C  0.75077148  0.57756600  0.12948963     0.83400
N74         N  0.74678261  0.54359146  0.16876100    -0.77300
C75         C  0.71295925  0.54793660  0.20927931     0.83500
N76         N  0.68316837  0.58679161  0.21102256    -0.79000
O77         O  0.96907257  0.81035105  0.12550177    -0.72200
O78         O  0.08522773  0.72754154  0.13396664    -0.73200
O79         O  0.07229836  0.82720225  0.13768920    -0.61800
O80         O  0.98323062  0.70987894  0.11413755    -0.70200
O81         O  0.99181511  0.71593879  0.02158061    -0.69700
O82         O  0.07760548  0.82939003  0.04435346    -0.61000
O83         O  0.09425542  0.72935950  0.04101687    -0.73500
O84         O  0.97467645  0.81713539  0.03259869    -0.72300
Cu85       Cu  0.02704648  0.76860900  0.13100439     1.04600
Cu86       Cu  0.03470508  0.77308082  0.03156143     1.04300
C87         C  0.95347395  0.82748154  0.07917551     0.94000
C88         C  0.10857473  0.71560570  0.09022801     0.93200
C89         C  0.08980284  0.84578958  0.09350273     0.85300
C90         C  0.97388091  0.69469709  0.06309298     0.91600
C91         C  0.18167944  0.94150655  0.05105495     0.81000
N92         N  0.21808409  0.93956911  0.09111014    -0.77300
C93         C  0.25706998  0.96942743  0.08935828     0.83400
N94         N  0.25929139  0.00211760  0.04789994    -0.77300
C95         C  0.22339876  0.00381609  0.00707981     0.83500
N96         N  0.18444372  0.97374463  0.00916816    -0.79000
C97         C  0.20440391  0.61843900  0.07105409     0.81000
N98         N  0.23425830  0.61875638  0.11842314    -0.77300
C99         C  0.26247219  0.57977684  0.12990366     0.83400
N100        N  0.26099804  0.54116883  0.09394460    -0.77300
C101        C  0.23165700  0.54139810  0.04690826     0.83500
N102        N  0.20383149  0.57989400  0.03539896    -0.79000
C103        C  0.86700669  0.93336673  0.05493452     0.81000
N104        N  0.83565158  0.93366036  0.09890659    -0.77300
C105        C  0.80589915  0.97208297  0.10822101     0.83400
N106        N  0.80668975  0.00927712  0.07259482    -0.77300
C107        C  0.83740610  0.00861404  0.02865006     0.83500
N108        N  0.86731986  0.97085880  0.01995485    -0.79000
C109        C  0.87062270  0.60213324  0.07138997     0.81000
N110        N  0.83109930  0.60345500  0.10429041    -0.77300
C111        C  0.79157386  0.57593907  0.09134769     0.83400
N112        N  0.79129980  0.54617837  0.04496923    -0.77300
C113        C  0.83080355  0.54395191  0.01139917     0.83500
N114        N  0.87073594  0.57205387  0.02467696    -0.79000
O115        O  0.07388682  0.23915114  0.38667966    -0.72200
O116        O  0.96336578  0.32951924  0.40763025    -0.73200
O117        O  0.06631310  0.33843413  0.41052905    -0.61800
O118        O  0.97005783  0.22963527  0.38577641    -0.70200
O119        O  0.97283557  0.21724628  0.47813523    -0.69700
O120        O  0.06758687  0.32574376  0.50288738    -0.61000
O121        O  0.96489809  0.31816367  0.50025866    -0.73500
O122        O  0.07660354  0.22592751  0.47891509    -0.72300
Cu123      Cu  0.01827016  0.28453784  0.39444755     1.04600
Cu124      Cu  0.02052077  0.27116398  0.49327871     1.04300
C125        C  0.09314602  0.21862924  0.42928981     0.94000
C126        C  0.94715032  0.33892407  0.45676152     0.93200
C127        C  0.08185798  0.34920869  0.46090669     0.85300
C128        C  0.95614450  0.20641160  0.42835361     0.91600
C129        C  0.18276634  0.44181543  0.44223161     0.81000
N130        N  0.18210090  0.47233767  0.48815929    -0.77300
C131        C  0.21963447  0.50358905  0.49855457     0.85400
N132        N  0.25760731  0.50437267  0.46296412    -0.77300
C133        C  0.25795016  0.47433646  0.41692654     0.83500
N134        N  0.22056937  0.44327768  0.40660671    -0.79000
C135        C  0.19002432  0.12148451  0.44855645     0.81000
N136        N  0.22083879  0.12513349  0.40462653    -0.77300
C137        C  0.25288434  0.08925921  0.39315125     0.83400
N138        N  0.25354961  0.04960627  0.42516247    -0.77300
C139        C  0.22330009  0.04633984  0.46927817     0.83500
N140        N  0.19174376  0.08223026  0.48087814    -0.79000
C141        C  0.87030203  0.10026467  0.45506353     0.81000
N142        N  0.86702003  0.06639650  0.49505068    -0.77300
C143        C  0.83011883  0.03378178  0.49217788     0.83400
N144        N  0.79634293  0.03499942  0.44899047    -0.77300
C145        C  0.79961002  0.06840425  0.40855352     0.83500
N146        N  0.83629985  0.10124320  0.41193682    -0.79000
C147        C  0.84811414  0.42972085  0.41916937     0.81000
N148        N  0.85281651  0.46545335  0.45914047    -0.77300
C149        C  0.82297958  0.50417129  0.45697257     0.83400
N150        N  0.78812304  0.50697079  0.41500277    -0.77300
C151        C  0.78338149  0.47119028  0.37512520     0.83500
N152        N  0.81337375  0.43276285  0.37742370    -0.79000
C153        C  0.11686860  0.38874021  0.47172670    -0.15700
C154        C  0.14372627  0.40627758  0.43056521    -0.30800
H155        H  0.12304600  0.40145706  0.51522241     0.13400
H156        H  0.13990697  0.39116455  0.38779750     0.13900
C157        C  0.13472715  0.18629283  0.41983504    -0.15700
C158        C  0.15257455  0.15790782  0.46018517    -0.30800
H159        H  0.14935789  0.18404568  0.37759656     0.13400
H160        H  0.13617414  0.15828321  0.50150689     0.13900
C161        C  0.90925495  0.13705772  0.46101300    -0.15700
C162        C  0.91960429  0.16753086  0.41978828    -0.30800
H163        H  0.92982708  0.13931111  0.50101315     0.13400
H164        H  0.90051145  0.16427158  0.37892343     0.13900
C165        C  0.90880347  0.37543042  0.46304492    -0.15700
C166        C  0.88211294  0.38913705  0.41778505    -0.30800
H167        H  0.90354558  0.39218763  0.50443232     0.13400
H168        H  0.88568079  0.37014136  0.37736701     0.13900
C169        C  0.12645488  0.88484260  0.09812808    -0.15700
C170        C  0.13970000  0.90833504  0.05172905    -0.30800
H171        H  0.14470161  0.89234033  0.13884194     0.13400
H172        H  0.11956917  0.90230133  0.01185470     0.13900
C173        C  0.91128919  0.86023582  0.08246181    -0.15700
C174        C  0.90214269  0.89402180  0.04465726    -0.30800
H175        H  0.89077040  0.86024140  0.12112764     0.13400
H176        H  0.92434100  0.89560736  0.00738236     0.13900
C177        C  0.15172218  0.68508548  0.09920570    -0.15700
C178        C  0.17028347  0.65765609  0.05818410    -0.30800
H179        H  0.16487310  0.68083025  0.14263455     0.13400
H180        H  0.15478583  0.65928369  0.01540887     0.13900
C181        C  0.94127589  0.65324807  0.04966231    -0.15700
C182        C  0.91129003  0.63529378  0.08738370    -0.30800
H183        H  0.93827678  0.64051351  0.00582748     0.13400
H184        H  0.91230184  0.65023489  0.13035212     0.13900
C185        C  0.62478025  0.89060181  0.21373170    -0.15700
C186        C  0.65653169  0.90078493  0.17361748    -0.30800
H187        H  0.62664610  0.90998601  0.25422644     0.13400
H188        H  0.65615181  0.87961409  0.13434048     0.13900
C189        C  0.40931886  0.64883397  0.22232462    -0.15700
C190        C  0.42081244  0.67491333  0.17769581    -0.30800
H191        H  0.42938125  0.65391862  0.26239987     0.13400
H192        H  0.40323940  0.66777749  0.13650386     0.13900
C193        C  0.62761688  0.67762217  0.21430256    -0.15700
C194        C  0.65465543  0.66301723  0.17052475    -0.30800
H195        H  0.63078127  0.65982255  0.25452165     0.13400
H196        H  0.65277033  0.68251137  0.13136780     0.13900
C197        C  0.39051939  0.90307735  0.20820765    -0.15700
C198        C  0.41243022  0.87866976  0.16656165    -0.30800
H199        H  0.40329242  0.89929775  0.25181953     0.13400
H200        H  0.40151178  0.88463542  0.12273817     0.13900
C201        C  0.43771808  0.39079138  0.31012876    -0.15700
C202        C  0.41100056  0.40559261  0.35387941    -0.30800
H203        H  0.43256939  0.40777597  0.26957691     0.13400
H204        H  0.41355532  0.38656686  0.39333114     0.13900
C205        C  0.61653745  0.15250828  0.29626839    -0.15700
C206        C  0.64854575  0.13982814  0.33732937    -0.30800
H207        H  0.61806193  0.13487948  0.25481659     0.13400
H208        H  0.64839042  0.15919675  0.37782753     0.13900
C209        C  0.64384442  0.36043679  0.30515859    -0.15700
C210        C  0.64770984  0.39470419  0.26690741    -0.30800
H211        H  0.66765924  0.36121245  0.34276686     0.13400
H212        H  0.62206246  0.39565232  0.23099348     0.13900
C213        C  0.37826105  0.16718168  0.28033802    -0.15700
C214        C  0.40256340  0.18810321  0.32427199    -0.30800
H215        H  0.39060946  0.17224498  0.23763359     0.13400
H216        H  0.39205781  0.18057206  0.36713431     0.13900
C217        C  0.34917950  0.12031330  0.78795596     0.81000
N218        N  0.34786022  0.08260308  0.75069856    -0.77300
C219        C  0.31776623  0.04506443  0.75837573     0.83400
N220        N  0.28866507  0.04484134  0.80374287    -0.77300
C221        C  0.28899023  0.08256283  0.84118447     0.83500
N222        N  0.31930671  0.12052201  0.83331915    -0.79000
O223        O  0.46247092  0.22933517  0.76725653    -0.72200
O224        O  0.58301595  0.31563442  0.76350245    -0.73200
O225        O  0.56479347  0.21430855  0.76103371    -0.61800
O226        O  0.48140864  0.32965415  0.76421536    -0.70200
O227        O  0.48535560  0.33257702  0.85828603    -0.69700
O228        O  0.57070017  0.21494770  0.85498268    -0.61000
O229        O  0.58711326  0.31488954  0.85742014    -0.73500
O230        O  0.46853982  0.23290409  0.86110687    -0.72300
Cu231      Cu  0.52280355  0.27203587  0.76063289     1.04600
Cu232      Cu  0.52809861  0.27380908  0.86117167     1.04300
C233        C  0.44663455  0.21799958  0.81574143     0.94000
C234        C  0.60320244  0.32940027  0.81093322     0.93200
C235        C  0.58130846  0.19647868  0.80666348     0.85300
C236        C  0.47019974  0.34946465  0.81107042     0.91600
C237        C  0.68600593  0.10977892  0.83380020     0.81000
N238        N  0.68387024  0.07690269  0.79017877    -0.77300
C239        C  0.72133468  0.04572878  0.78255245     0.83400
N240        N  0.76041342  0.04682508  0.81932901    -0.77300
C241        C  0.76231272  0.07955762  0.86286970     0.83500
N242        N  0.72520225  0.11077774  0.86994865    -0.79000
C243        C  0.37192010  0.43959144  0.84683697     0.81000
N244        N  0.33520393  0.43848348  0.88364513    -0.77300
C245        C  0.29703529  0.46866641  0.87827466     0.83400
N246        N  0.29546261  0.50065658  0.83617374    -0.77300
C247        C  0.33217616  0.50195786  0.79894990     0.83500
N248        N  0.37061242  0.47158809  0.80443052    -0.79000
C249        C  0.68453078  0.43834448  0.78552363     0.81000
N250        N  0.68329833  0.47429231  0.74818747    -0.77300
C251        C  0.71436544  0.51193279  0.75473560     0.83400
N252        N  0.74726078  0.51374553  0.79887462    -0.77300
C253        C  0.74843726  0.47839340  0.83718777     0.83500
N254        N  0.71763166  0.44020938  0.82983078    -0.79000
C255        C  0.35585173  0.93461075  0.68411314     0.81000
N256        N  0.32308406  0.93225780  0.63974158    -0.77300
C257        C  0.28796118  0.96623250  0.63473087     0.83400
N258        N  0.28598882  0.00277480  0.67359732    -0.77300
C259        C  0.31802157  0.00455301  0.71839684     0.83500
N260        N  0.35300240  0.97065029  0.72343973    -0.79000
O261        O  0.57339529  0.81486915  0.61775413    -0.72200
O262        O  0.46616078  0.71784312  0.62419945    -0.73200
O263        O  0.46911408  0.81747781  0.60993529    -0.61800
O264        O  0.56934542  0.71473231  0.63354544    -0.70200
O265        O  0.56688603  0.72699268  0.72665681    -0.69700
O266        O  0.46644200  0.82820082  0.70321480    -0.61000
O267        O  0.46417068  0.72786668  0.71766016    -0.73500
O268        O  0.57028387  0.82767726  0.71066692    -0.72300
Cu269      Cu  0.51970592  0.76589970  0.61810807     1.04600
Cu270      Cu  0.51690696  0.77827064  0.71779225     1.04300
C271        C  0.58882162  0.83665567  0.66297849     0.94000
C272        C  0.44861560  0.70717906  0.67162861     0.93200
C273        C  0.45120776  0.83830261  0.65337200     0.85300
C274        C  0.58339576  0.70431404  0.68383228     0.91600
C275        C  0.67948929  0.93935880  0.69857827     0.81000
N276        N  0.68176485  0.97561519  0.73795347    -0.77300
C277        C  0.71802948  0.00865875  0.73751795     0.83400
N278        N  0.75239322  0.00553140  0.69725198    -0.77300
C279        C  0.75027858  0.96956109  0.65729264     0.83500
N280        N  0.71404218  0.93624298  0.65833059    -0.79000
C281        C  0.36373999  0.60697897  0.71626735     0.81000
N282        N  0.32739172  0.60604833  0.67586250    -0.77300
C283        C  0.29323486  0.57083293  0.67449783     0.83400
N284        N  0.29493288  0.53665557  0.71422977    -0.77300
C285        C  0.33118519  0.53748186  0.75476948     0.83500
N286        N  0.36548512  0.57261755  0.75571155    -0.79000
C287        C  0.68172281  0.61008423  0.65926387     0.81000
N288        N  0.71758572  0.60606902  0.62133953    -0.77300
C289        C  0.75280420  0.57265067  0.62738987     0.83400
N290        N  0.75246754  0.54294235  0.67171669    -0.77300
C291        C  0.71653908  0.54666040  0.70993657     0.83500
N292        N  0.68091357  0.58006639  0.70360433    -0.79000
O293        O  0.97008052  0.81802899  0.58436742    -0.72200
O294        O  0.07307296  0.71539654  0.58719114    -0.73200
O295        O  0.07417693  0.81649282  0.59794430    -0.61800
O296        O  0.97028891  0.71610313  0.57311816    -0.70200
O297        O  0.97644937  0.72090140  0.48002428    -0.69700
O298        O  0.08096150  0.82076252  0.50485362    -0.61000
O299        O  0.07889145  0.71919159  0.49391575    -0.73500
O300        O  0.97760564  0.82313739  0.49149765    -0.72300
Cu301      Cu  0.02155757  0.76644413  0.58893051     1.04600
Cu302      Cu  0.02864375  0.77130457  0.48936698     1.04300
C303        C  0.95781873  0.83699198  0.53741012     0.94000
C304        C  0.09171122  0.70076566  0.54089393     0.93200
C305        C  0.09444722  0.83398117  0.55512940     0.85300
C306        C  0.95775584  0.70188782  0.52284268     0.91600
C307        C  0.18922505  0.93196754  0.53140165     0.81000
N308        N  0.22140950  0.93039955  0.57631611    -0.77300
C309        C  0.25475465  0.96603097  0.58533993     0.83400
N310        N  0.25564382  0.00330968  0.54992989    -0.77300
C311        C  0.22433413  0.00449126  0.50460830     0.83500
N312        N  0.19096553  0.96901066  0.49553863    -0.79000
C313        C  0.18618002  0.60798503  0.58832921     0.81000
N314        N  0.22089937  0.60629929  0.63035850    -0.77300
C315        C  0.25437033  0.57057912  0.63072338     0.83400
N316        N  0.25353101  0.53665700  0.58839697    -0.77300
C317        C  0.21857797  0.53792397  0.54643330     0.83500
N318        N  0.18509012  0.57367352  0.54638688    -0.79000
C319        C  0.85609601  0.92639373  0.57626470     0.81000
N320        N  0.82035922  0.92927359  0.61496328    -0.77300
C321        C  0.78790202  0.96602326  0.61425942     0.83400
N322        N  0.79120444  0.00007930  0.57451202    -0.77300
C323        C  0.82674424  0.99736938  0.53556084     0.83500
N324        N  0.85920137  0.96069387  0.53675037    -0.79000
C325        C  0.86146948  0.60652879  0.55098871     0.81000
N326        N  0.82716870  0.60456080  0.59088449    -0.77300
C327        C  0.79186938  0.57073237  0.58729709     0.83400
N328        N  0.79036019  0.53866652  0.54328059    -0.77300
C329        C  0.82477333  0.53999325  0.50322410     0.83500
N330        N  0.86048112  0.57402977  0.50687967    -0.79000
O331        O  0.07087811  0.23057236  0.85952482    -0.72200
O332        O  0.97452034  0.33774026  0.88414183    -0.73200
O333        O  0.07720046  0.33059457  0.87262470    -0.61800
O334        O  0.96738036  0.23690301  0.86955296    -0.70200
O335        O  0.97589515  0.22954402  0.96266072    -0.69700
O336        O  0.08573551  0.32375324  0.96585019    -0.61000
O337        O  0.98366553  0.33072576  0.97716203    -0.73500
O338        O  0.07860394  0.22355350  0.95266931    -0.72300
Cu339      Cu  0.02203308  0.28416852  0.86818601     1.04600
Cu340      Cu  0.03115791  0.27657624  0.96783398     1.04300
C341        C  0.09070300  0.21090471  0.90263405     0.94000
C342        C  0.96431126  0.35139201  0.93459582     0.93200
C343        C  0.09898869  0.34163884  0.91954660     0.85300
C344        C  0.95443109  0.21824960  0.91540465     0.91600
C345        C  0.19574680  0.43268845  0.96640347     0.81000
N346        N  0.19830749  0.46692006  0.00802783    -0.77300
C347        C  0.23212850  0.50210535  0.00622912     0.85400
N348        N  0.26294955  0.50363201  0.96270978    -0.77300
C349        C  0.26062987  0.46934125  0.92131427     0.83500
N350        N  0.22729494  0.43364099  0.92316573    -0.79000
C351        C  0.18491097  0.11227736  0.93222572     0.81000
N352        N  0.21914585  0.11531171  0.89187793    -0.77300
C353        C  0.25527376  0.08207576  0.88857969     0.83400
N354        N  0.25674813  0.04544075  0.92559223    -0.77300
C355        C  0.22271413  0.04261235  0.96622095     0.83500
N356        N  0.18705465  0.07604891  0.96919106    -0.79000
C357        C  0.86888341  0.11665620  0.95222671     0.81000
N358        N  0.86933541  0.08223850  0.99154183    -0.77300
C359        C  0.83586332  0.04649652  0.98796571     0.83400
N360        N  0.80221086  0.04470603  0.94481476    -0.77300
C361        C  0.80168521  0.07895725  0.90540629     0.83500
N362        N  0.83462432  0.11522434  0.90940803    -0.79000
C363        C  0.86263181  0.44413994  0.91175626     0.81000
N364        N  0.86557686  0.47705427  0.95543847    -0.77300
C365        C  0.82976121  0.51045539  0.96170702     0.83400
N366        N  0.79094454  0.51052910  0.92407075    -0.77300
C367        C  0.78815893  0.47767152  0.88040998     0.83500
N368        N  0.82406337  0.44489313  0.87459021    -0.79000
C369        C  0.13985623  0.37531625  0.91950786    -0.15700
C370        C  0.15738970  0.39634688  0.96741530    -0.30800
H371        H  0.15435895  0.38464072  0.87892099     0.13400
H372        H  0.14080085  0.38945400  0.00760855     0.13900
C373        C  0.12897519  0.17430064  0.89452014    -0.15700
C374        C  0.14568168  0.14803019  0.93772171    -0.30800
H375        H  0.14379821  0.16907305  0.85267515     0.13400
H376        H  0.12882428  0.15159697  0.97866890     0.13900
C377        C  0.90608066  0.15458517  0.95624730    -0.15700
C378        C  0.91460707  0.18301584  0.91286032    -0.30800
H379        H  0.92870346  0.15746756  0.99475057     0.13400
H380        H  0.89354882  0.17872158  0.87335119     0.13900
C381        C  0.92985436  0.39126283  0.94451817    -0.15700
C382        C  0.90037906  0.40726492  0.90288200    -0.30800
H383        H  0.92700498  0.40607060  0.98727914     0.13400
H384        H  0.90144562  0.39024198  0.86103632     0.13900
C385        C  0.13409408  0.86935544  0.56440154    -0.15700
C386        C  0.15112190  0.89508253  0.52201781    -0.30800
H387        H  0.14864494  0.87529494  0.60729254     0.13400
H388        H  0.13457057  0.89114592  0.47980009     0.13900
C389        C  0.92121534  0.87586455  0.53532737    -0.15700
C390        C  0.89182473  0.88665407  0.57851200    -0.30800
H391        H  0.91800096  0.89578670  0.49657226     0.13400
H392        H  0.89340110  0.86531323  0.61625130     0.13900
C393        C  0.12766400  0.66161006  0.54083694    -0.15700
C394        C  0.15053717  0.64741832  0.58850193    -0.30800
H395        H  0.13608704  0.64457280  0.50041820     0.13400
H396        H  0.14442405  0.66638960  0.62840565     0.13900
C397        C  0.92200919  0.66262128  0.51383862    -0.15700
C398        C  0.89885739  0.64422981  0.55745070    -0.30800
H399        H  0.91419987  0.64910963  0.47097783     0.13400
H400        H  0.90516439  0.65954327  0.59980901     0.13900
C401        C  0.62867876  0.87209317  0.65920332    -0.15700
C402        C  0.64021493  0.90324414  0.70179729    -0.30800
H403        H  0.64807218  0.87336782  0.61982933     0.13400
H404        H  0.61919225  0.90328356  0.74007876     0.13900
C405        C  0.40113478  0.64502859  0.71782342    -0.15700
C406        C  0.40996020  0.67064204  0.67202614    -0.30800
H407        H  0.42329418  0.65056518  0.75634814     0.13400
H408        H  0.39007276  0.66274668  0.63239661     0.13900
C409        C  0.61873890  0.66560331  0.69323228    -0.15700
C410        C  0.64428694  0.64686611  0.65068334    -0.30800
H411        H  0.62508547  0.65348841  0.73612304     0.13400
H412        H  0.63989324  0.66107746  0.60849083     0.13900
C413        C  0.39525463  0.89936274  0.68996640    -0.15700
C414        C  0.41179932  0.87352426  0.64584639    -0.30800
H415        H  0.41256243  0.89616336  0.73165360     0.13400
H416        H  0.39618165  0.87826799  0.60358506     0.13900
C417        C  0.43835052  0.39142137  0.80901310    -0.15700
C418        C  0.41136040  0.40456773  0.85280294    -0.30800
H419        H  0.43290129  0.40844479  0.76850947     0.13400
H420        H  0.41444624  0.38529134  0.89207278     0.13900
C421        C  0.61398020  0.15504448  0.80184903    -0.15700
C422        C  0.64708494  0.14520733  0.84251821    -0.30800
H423        H  0.61445812  0.13558043  0.76141561     0.13400
H424        H  0.64847642  0.16677824  0.88152495     0.13900
C425        C  0.64439807  0.36366837  0.81435830    -0.15700
C426        C  0.64975120  0.39795716  0.77646869    -0.30800
H427        H  0.66688755  0.36463971  0.85301660     0.13400
H428        H  0.62535346  0.39846246  0.73938582     0.13900
C429        C  0.38528849  0.15873217  0.77907222    -0.15700
C430        C  0.40343838  0.18673311  0.82154856    -0.30800
H431        H  0.40153838  0.16011827  0.73775117     0.13400
H432        H  0.38925449  0.18322344  0.86370007     0.13900
loop_ 
_geom_bond_atom_site_label_1 
_geom_bond_atom_site_label_2 
_geom_bond_distance 
_geom_bond_site_symmetry_2 
_ccdc_geom_bond_type 
C1            N2   1.352       .  A
C1            N6   1.365       .  A
C1          C213   1.471       .  S
N2            C3   1.351       .  A
C3            N4   1.354       .  A
C3           C43   1.449       .  S
N4            C5   1.357       .  A
C5            N6   1.363       .  A
C5          C137   1.467       .  S
O7          Cu15   2.031       .  S
O7           C17   1.282       .  A
O8          Cu15   2.028       .  S
O8           C18   1.281       .  A
O9          Cu15   2.009       .  S
O9           C19   1.275       .  A
O10         Cu15   1.991       .  S
O10          C20   1.273       .  A
O11         Cu16   2.048       .  S
O11          C20   1.284       .  A
O12         Cu16   2.049       .  S
O12          C19   1.284       .  A
O13         Cu16   1.983       .  S
O13          C18   1.273       .  A
O14         Cu16   1.987       .  S
O14          C17   1.273       .  A
Cu15        Cu16   2.374       .  S
C17         C214   1.474       .  S
C18         C209   1.468       .  S
C19         C205   1.489       .  S
C20         C201   1.480       .  S
C21          N22   1.368       .  A
C21          N26   1.358       .  A
C21         C206   1.489       .  S
N22          C23   1.368       .  A
C23          N24   1.360       .  A
C23          C61   1.480       .  S
N24          C25   1.358       .  A
C25          N26   1.355       .  A
C25         C145   1.466       .  S
C27          N28   1.357       .  A
C27          N32   1.366       .  A
C27         C202   1.483       .  S
N28          C29   1.356       .  A
C29          N30   1.355       .  A
C29         C133   1.456       .  S
N30          C31   1.356       .  A
C31          N32   1.364       .  A
C31          C69   1.469       .  S
C33          N34   1.357       .  A
C33          N38   1.360       .  A
C33         C210   1.478       .  S
N34          C35   1.358       .  A
C35          N36   1.358       .  A
C35          C75   1.457       .  S
N36          C37   1.356       .  A
C37          N38   1.356       .  A
C37         C151   1.463       .  S
C39          N40   1.364       .  A
C39          N44   1.355       .  A
C39         C197   1.473       .  S
N40          C41   1.361       .  A
C41          N42   1.354   1_565  A
C41          C93   1.459       .  S
N42          C43   1.352       .  A
C43          N44   1.354   1_545  A
O45         Cu53   2.020       .  S
O45          C55   1.280       .  A
O46         Cu53   2.015       .  S
O46          C56   1.278       .  A
O47         Cu53   1.995       .  S
O47          C57   1.274       .  A
O48         Cu53   1.996       .  S
O48          C58   1.277       .  A
O49         Cu54   2.026       .  S
O49          C58   1.279       .  A
O50         Cu54   2.023       .  S
O50          C57   1.281       .  A
O51         Cu54   1.992       .  S
O51          C56   1.276       .  A
O52         Cu54   2.004       .  S
O52          C55   1.275       .  A
Cu53        Cu54   2.374       .  S
C55         C185   1.477       .  S
C56         C190   1.471       .  S
C57         C198   1.474       .  S
C58         C193   1.479       .  S
C59          N60   1.363       .  A
C59          N64   1.356       .  A
C59         C186   1.476       .  S
N60          C61   1.361   1_565  A
C61          N62   1.366       .  A
N62          C63   1.365   1_545  A
C63          N64   1.354       .  A
C63         C105   1.472       .  S
C65          N66   1.358       .  A
C65          N70   1.357       .  A
C65         C189   1.469       .  S
N66          C67   1.356       .  A
C67          N68   1.362       .  A
C67          C99   1.466       .  S
N68          C69   1.362       .  A
C69          N70   1.356       .  A
C71          N72   1.358       .  A
C71          N76   1.362       .  A
C71         C194   1.474       .  S
N72          C73   1.355       .  A
C73          N74   1.353       .  A
C73         C111   1.457       .  S
N74          C75   1.355       .  A
C75          N76   1.360       .  A
O77         Cu85   1.976   1_655  S
O77          C87   1.270       .  A
O78         Cu85   1.966       .  S
O78          C88   1.269       .  A
O79         Cu85   2.052       .  S
O79          C89   1.284       .  A
O80         Cu85   2.055   1_655  S
O80          C90   1.286       .  A
O81         Cu86   1.986   1_655  S
O81          C90   1.271       .  A
O82         Cu86   1.974       .  S
O82          C89   1.272       .  A
O83         Cu86   2.051       .  S
O83          C88   1.286       .  A
O84         Cu86   2.056   1_655  S
O84          C87   1.286       .  A
Cu85        Cu86   2.372       .  S
C87         C173   1.478       .  S
C88         C177   1.473       .  S
C89         C169   1.482       .  S
C90         C181   1.484       .  S
C91          N92   1.357       .  A
C91          N96   1.361       .  A
C91         C170   1.477       .  S
N92          C93   1.357       .  A
C93          N94   1.361   1_565  A
N94          C95   1.359       .  A
C95          N96   1.360   1_545  A
C95         C355   1.472   1_554  S
C97          N98   1.367       .  A
C97         N102   1.349       .  A
C97         C178   1.474       .  S
N98          C99   1.366       .  A
C99         N100   1.355       .  A
N100        C101   1.353       .  A
C101        N102   1.349       .  A
C101        C347   1.440       .  S
C103        N104   1.368       .  A
C103        N108   1.353       .  A
C103        C174   1.482       .  S
N104        C105   1.366       .  A
C105        N106   1.356   1_565  A
N106        C107   1.356       .  A
C107        N108   1.352   1_545  A
C107        C359   1.450   1_554  S
C109        N110   1.352       .  A
C109        N114   1.369       .  A
C109        C182   1.482       .  S
N110        C111   1.350       .  A
C111        N112   1.357       .  A
N112        C113   1.361       .  A
C113        N114   1.370       .  A
C113        C365   1.481   1_554  S
O115       Cu123   1.994       .  S
O115        C125   1.274       .  A
O116       Cu123   1.988   1_655  S
O116        C126   1.276       .  A
O117       Cu123   2.020       .  S
O117        C127   1.280       .  A
O118       Cu123   2.026   1_655  S
O118        C128   1.280       .  A
O119       Cu124   2.011   1_655  S
O119        C128   1.278       .  A
O120       Cu124   2.000       .  S
O120        C127   1.275       .  A
O121       Cu124   2.021   1_655  S
O121        C126   1.278       .  A
O122       Cu124   2.022       .  S
O122        C125   1.281       .  A
Cu123      Cu124   2.375       .  S
C125        C157   1.474       .  S
C126        C165   1.474       .  S
C127        C153   1.474       .  S
C128        C162   1.482       .  S
C129        N130   1.363       .  A
C129        N134   1.355       .  A
C129        C154   1.473       .  S
N130        C131   1.361       .  A
C131        N132   1.358       .  A
C131        C317   1.464       .  S
N132        C133   1.356       .  A
C133        N134   1.354       .  A
C135        N136   1.363       .  A
C135        N140   1.354       .  A
C135        C158   1.473       .  S
N136        C137   1.361       .  A
C137        N138   1.359       .  A
N138        C139   1.356       .  A
C139        N140   1.353       .  A
C139        C311   1.456       .  S
C141        N142   1.361       .  A
C141        N146   1.361       .  A
C141        C161   1.482       .  S
N142        C143   1.359       .  A
C143        N144   1.359       .  A
C143        C323   1.469   1_545  S
N144        C145   1.359       .  A
C145        N146   1.359       .  A
C147        N148   1.359       .  A
C147        N152   1.355       .  A
C147        C166   1.469       .  S
N148        C149   1.359       .  A
C149        N150   1.360       .  A
C149        C329   1.462       .  S
N150        C151   1.359       .  A
C151        N152   1.355       .  A
C153        C154   1.340       .  D
C153        H155   1.087       .  S
C154        H156   1.087       .  S
C157        C158   1.339       .  D
C157        H159   1.087       .  S
C158        H160   1.087       .  S
C161        C162   1.348       .  D
C161        H163   1.087       .  S
C162        H164   1.086       .  S
C165        C166   1.343       .  D
C165        H167   1.086       .  S
C166        H168   1.087       .  S
C169        C170   1.352       .  D
C169        H171   1.086       .  S
C170        H172   1.087       .  S
C173        C174   1.337       .  D
C173        H175   1.087       .  S
C174        H176   1.087       .  S
C177        C178   1.333       .  D
C177        H179   1.087       .  S
C178        H180   1.087       .  S
C181        C182   1.337       .  D
C181        H183   1.087       .  S
C182        H184   1.087       .  S
C185        C186   1.341       .  D
C185        H187   1.087       .  S
C186        H188   1.087       .  S
C189        C190   1.343       .  D
C189        H191   1.087       .  S
C190        H192   1.087       .  S
C193        C194   1.345       .  D
C193        H195   1.086       .  S
C194        H196   1.087       .  S
C197        C198   1.339       .  D
C197        H199   1.087       .  S
C198        H200   1.087       .  S
C201        C202   1.341       .  D
C201        H203   1.087       .  S
C202        H204   1.087       .  S
C205        C206   1.344       .  D
C205        H207   1.086       .  S
C206        H208   1.087       .  S
C209        C210   1.341       .  D
C209        H211   1.087       .  S
C210        H212   1.087       .  S
C213        C214   1.337       .  D
C213        H215   1.087       .  S
C214        H216   1.087       .  S
C217        N218   1.354       .  A
C217        N222   1.368       .  A
C217        C429   1.482       .  S
N218        C219   1.353       .  A
C219        N220   1.355       .  A
C219        C259   1.455       .  S
N220        C221   1.358       .  A
C221        N222   1.367       .  A
C221        C353   1.473       .  S
O223       Cu231   2.050       .  S
O223        C233   1.285       .  A
O224       Cu231   2.048       .  S
O224        C234   1.284       .  A
O225       Cu231   1.983       .  S
O225        C235   1.272       .  A
O226       Cu231   1.973       .  S
O226        C236   1.270       .  A
O227       Cu232   2.020       .  S
O227        C236   1.282       .  A
O228       Cu232   2.023       .  S
O228        C235   1.282       .  A
O229       Cu232   1.987       .  S
O229        C234   1.272       .  A
O230       Cu232   1.991       .  S
O230        C233   1.273       .  A
Cu231      Cu232   2.375       .  S
C233        C430   1.482       .  S
C234        C425   1.478       .  S
C235        C421   1.469       .  S
C236        C417   1.464       .  S
C237        N238   1.362       .  A
C237        N242   1.352       .  A
C237        C422   1.471       .  S
N238        C239   1.360       .  A
C239        N240   1.359       .  A
C239        C277   1.466       .  S
N240        C241   1.358       .  A
C241        N242   1.352       .  A
C241        C361   1.453       .  S
C243        N244   1.350       .  A
C243        N248   1.361       .  A
C243        C418   1.466       .  S
N244        C245   1.350       .  A
C245        N246   1.356       .  A
C245        C349   1.445       .  S
N246        C247   1.357       .  A
C247        N248   1.359       .  A
C247        C285   1.460       .  S
C249        N250   1.355       .  A
C249        N254   1.365       .  A
C249        C426   1.483       .  S
N250        C251   1.355       .  A
C251        N252   1.358       .  A
C251        C291   1.459       .  S
N252        C253   1.358       .  A
C253        N254   1.364       .  A
C253        C367   1.471       .  S
C255        N256   1.360       .  A
C255        N260   1.356       .  A
C255        C413   1.469       .  S
N256        C257   1.358       .  A
C257        N258   1.357   1_565  A
C257        C309   1.459       .  S
N258        C259   1.355       .  A
C259        N260   1.354   1_545  A
O261       Cu269   2.008       .  S
O261        C271   1.276       .  A
O262       Cu269   1.999       .  S
O262        C272   1.275       .  A
O263       Cu269   2.011       .  S
O263        C273   1.277       .  A
O264       Cu269   2.008       .  S
O264        C274   1.280       .  A
O265       Cu270   1.995       .  S
O265        C274   1.274       .  A
O266       Cu270   1.996       .  S
O266        C273   1.277       .  A
O267       Cu270   2.016       .  S
O267        C272   1.279       .  A
O268       Cu270   2.024       .  S
O268        C271   1.281       .  A
Cu269      Cu270   2.375       .  S
C271        C401   1.480       .  S
C272        C406   1.471       .  S
C273        C414   1.473       .  S
C274        C409   1.470       .  S
C275        N276   1.357       .  A
C275        N280   1.363       .  A
C275        C402   1.479       .  S
N276        C277   1.356   1_565  A
C277        N278   1.359       .  A
N278        C279   1.360   1_545  A
C279        N280   1.361       .  A
C279        C321   1.471       .  S
C281        N282   1.359       .  A
C281        N286   1.357       .  A
C281        C405   1.475       .  S
N282        C283   1.356       .  A
C283        N284   1.358       .  A
C283        C315   1.462       .  S
N284        C285   1.359       .  A
C285        N286   1.358       .  A
C287        N288   1.352       .  A
C287        N292   1.361       .  A
C287        C410   1.467       .  S
N288        C289   1.351       .  A
C289        N290   1.355       .  A
C289        C327   1.450       .  S
N290        C291   1.358       .  A
C291        N292   1.360       .  A
O293       Cu301   2.021   1_655  S
O293        C303   1.279       .  A
O294       Cu301   2.009       .  S
O294        C304   1.278       .  A
O295       Cu301   2.010       .  S
O295        C305   1.277       .  A
O296       Cu301   2.007   1_655  S
O296        C306   1.279       .  A
O297       Cu302   2.009   1_655  S
O297        C306   1.276       .  A
O298       Cu302   2.009       .  S
O298        C305   1.278       .  A
O299       Cu302   2.009       .  S
O299        C304   1.277       .  A
O300       Cu302   2.016   1_655  S
O300        C303   1.278       .  A
Cu301      Cu302   2.374       .  S
C303        C389   1.481       .  S
C304        C393   1.474       .  S
C305        C385   1.475       .  S
C306        C397   1.477       .  S
C307        N308   1.362       .  A
C307        N312   1.358       .  A
C307        C386   1.474       .  S
N308        C309   1.359       .  A
C309        N310   1.355   1_565  A
N310        C311   1.354       .  A
C311        N312   1.356   1_545  A
C313        N314   1.357       .  A
C313        N318   1.360       .  A
C313        C394   1.474       .  S
N314        C315   1.357       .  A
C315        N316   1.359       .  A
N316        C317   1.359       .  A
C317        N318   1.358       .  A
C319        N320   1.360       .  A
C319        N324   1.361       .  A
C319        C390   1.483       .  S
N320        C321   1.360       .  A
C321        N322   1.361   1_565  A
N322        C323   1.360   1_545  A
C323        N324   1.358       .  A
C325        N326   1.353       .  A
C325        N330   1.363       .  A
C325        C398   1.470       .  S
N326        C327   1.351       .  A
C327        N328   1.354       .  A
N328        C329   1.357       .  A
C329        N330   1.363       .  A
O331       Cu339   2.021       .  S
O331        C341   1.278       .  A
O332       Cu339   2.021   1_655  S
O332        C342   1.281       .  A
O333       Cu339   1.989       .  S
O333        C343   1.274       .  A
O334       Cu339   1.997   1_655  S
O334        C344   1.275       .  A
O335       Cu340   2.002   1_655  S
O335        C344   1.278       .  A
O336       Cu340   1.995       .  S
O336        C343   1.278       .  A
O337       Cu340   2.009   1_655  S
O337        C342   1.276       .  A
O338       Cu340   2.005       .  S
O338        C341   1.278       .  A
Cu339      Cu340   2.376       .  S
C341        C373   1.479       .  S
C342        C381   1.480       .  S
C343        C369   1.462       .  S
C344        C378   1.468       .  S
C345        N346   1.354   1_556  A
C345        N350   1.358       .  A
C345        C370   1.462       .  S
N346        C347   1.353       .  A
C347        N348   1.351   1_554  A
N348        C349   1.351       .  A
C349        N350   1.354       .  A
C351        N352   1.361       .  A
C351        N356   1.356       .  A
C351        C374   1.475       .  S
N352        C353   1.361       .  A
C353        N354   1.365       .  A
N354        C355   1.362       .  A
C355        N356   1.355       .  A
C357        N358   1.356       .  A
C357        N362   1.360       .  A
C357        C377   1.469       .  S
N358        C359   1.354       .  A
C359        N360   1.354       .  A
N360        C361   1.354       .  A
C361        N362   1.356       .  A
C363        N364   1.364       .  A
C363        N368   1.355       .  A
C363        C382   1.477       .  S
N364        C365   1.364       .  A
C365        N366   1.366       .  A
N366        C367   1.363       .  A
C367        N368   1.353       .  A
C369        C370   1.337       .  D
C369        H371   1.087       .  S
C370        H372   1.087   1_556  S
C373        C374   1.344       .  D
C373        H375   1.086       .  S
C374        H376   1.087       .  S
C377        C378   1.340       .  D
C377        H379   1.087       .  S
C378        H380   1.087       .  S
C381        C382   1.341       .  D
C381        H383   1.086       .  S
C382        H384   1.087       .  S
C385        C386   1.343       .  D
C385        H387   1.087       .  S
C386        H388   1.086       .  S
C389        C390   1.347       .  D
C389        H391   1.086       .  S
C390        H392   1.086       .  S
C393        C394   1.343       .  D
C393        H395   1.087       .  S
C394        H396   1.087       .  S
C397        C398   1.340       .  D
C397        H399   1.086       .  S
C398        H400   1.087       .  S
C401        C402   1.343       .  D
C401        H403   1.086       .  S
C402        H404   1.087       .  S
C405        C406   1.342       .  D
C405        H407   1.087       .  S
C406        H408   1.087       .  S
C409        C410   1.338       .  D
C409        H411   1.087       .  S
C410        H412   1.087       .  S
C413        C414   1.342       .  D
C413        H415   1.087       .  S
C414        H416   1.087       .  S
C417        C418   1.333       .  D
C417        H419   1.087       .  S
C418        H420   1.087       .  S
C421        C422   1.336       .  D
C421        H423   1.087       .  S
C422        H424   1.087       .  S
C425        C426   1.340       .  D
C425        H427   1.087       .  S
C426        H428   1.087       .  S
C429        C430   1.339       .  D
C429        H431   1.087       .  S
C430        H432   1.087       .  S
