geometry optimzed in LAMMPS
_audit_creation_date              2020-11-30 
_audit_creation_method            'lammps2cif' 
_symmetry_space_group_name_H-M    'P1' 
_symmetry_Int_Tables_number       1 
_symmetry_cell_setting            triclinic 
loop_ 
_symmetry_equiv_pos_as_xyz 
  x,y,z 
_cell_length_a                    40.82267219 
_cell_length_b                    41.48696052059871 
_cell_length_c                    48.2585534894617 
_cell_angle_alpha                 90.26383453089353 
_cell_angle_beta                  89.38082567616884 
_cell_angle_gamma                 91.00711448247333 
loop_ 
_atom_site_label 
_atom_site_type_symbol 
_atom_site_fract_x 
_atom_site_fract_y 
_atom_site_fract_z 
_atom_site_charge 
C1          C  0.31540345  0.18365951  0.85797882     0.79400
N2          N  0.33905843  0.20101456  0.84425091    -0.78900
C3          C  0.35203478  0.18924070  0.82028452     0.81900
N4          N  0.34054327  0.16086023  0.81000726    -0.78800
C5          C  0.31664044  0.14340959  0.82291892     0.82000
N6          N  0.30428895  0.15529061  0.84702031    -0.80500
C7          C  0.04627500  0.11277400  0.61855917     0.79400
N8          N  0.07049779  0.09813895  0.63280298    -0.78900
C9          C  0.08142881  0.11058938  0.65732066     0.81900
N10         N  0.06713459  0.13770430  0.66749566    -0.78800
C11         C  0.04238764  0.15196370  0.65376896     0.82000
N12         N  0.03213650  0.13947165  0.62931959    -0.80500
C13         C  0.13622677  0.35511763  0.83215327     0.79400
N14         N  0.15042608  0.38133535  0.81991716    -0.78900
C15         C  0.13908424  0.39258397  0.79547035     0.81900
N16         N  0.11307892  0.37720524  0.78345506    -0.78800
C17         C  0.09832182  0.35137625  0.79595891     0.82000
N18         N  0.10998975  0.34034954  0.82027738    -0.80500
C19         C  0.36672156  0.43975945  0.61111287     0.79400
N20         N  0.34015233  0.45481707  0.62183740    -0.78900
C21         C  0.32703185  0.44556572  0.64663535     0.81900
N22         N  0.34081046  0.42102274  0.66070495    -0.78800
C23         C  0.36718514  0.40560276  0.64991574     0.82000
N24         N  0.38009496  0.41514898  0.62523308    -0.80500
C25         C  0.43971269  0.30679552  0.70963258     0.85700
C26         C  0.47008945  0.31944066  0.72532454    -0.54500
C27         C  0.48587133  0.29663994  0.74046813     0.08600
C28         C  0.47069835  0.26237228  0.73724610     0.19600
C29         C  0.45457744  0.27985557  0.69145334    -0.55300
C30         C  0.47046793  0.25643369  0.70561616     0.08700
C31         C  0.41891787  0.28961414  0.73168166    -0.54800
C32         C  0.43420028  0.26578467  0.74573929     0.09300
H33         H  0.47886936  0.34419844  0.72433998     0.13800
H34         H  0.48386338  0.24350531  0.74863173    -0.00400
H35         H  0.45467455  0.28026035  0.66902896     0.14100
H36         H  0.39345552  0.29550009  0.73541726     0.13900
C37         C  0.23490096  0.05785242  0.75292534     0.85700
C38         C  0.20863469  0.07556587  0.73677259    -0.54500
C39         C  0.19004660  0.05635815  0.71977312     0.08600
C40         C  0.20021317  0.02054530  0.71984293     0.19600
C41         C  0.21679290  0.02968428  0.76752635    -0.55300
C42         C  0.19846830  0.01030417  0.75053608     0.08700
C43         C  0.25510955  0.03990986  0.73064015    -0.54800
C44         C  0.23738071  0.02072049  0.71281577     0.09300
H45         H  0.20488232  0.10117854  0.73887531     0.13800
H46         H  0.18495130  0.50526302  0.70603054    -0.00400
H47         H  0.22037244  0.02352679  0.78915829     0.14100
H48         H  0.28176669  0.04130906  0.72964531     0.13900
O49         O  0.21714733  0.23828739  0.95578854    -0.75200
O50         O  0.16803170  0.29460428  0.00268502    -0.75200
O51         O  0.17327593  0.28502632  0.94698868    -0.75300
O52         O  0.21192689  0.24770253  0.01099606    -0.75300
O53         O  0.25203956  0.28490989  0.00935665    -0.75300
O54         O  0.21419309  0.32131789  0.94458908    -0.75300
O55         O  0.20754239  0.33155541  0.99997404    -0.75200
O56         O  0.25771308  0.27484003  0.95379563    -0.75300
Ni57       Ni  0.19112264  0.26516490  0.97923113     1.25400
Ni58       Ni  0.23433020  0.30448444  0.97696176     1.25400
C59         C  0.24522888  0.24755974  0.94651895     0.87000
C60         C  0.17922333  0.32264146  0.00904656     0.86900
C61         C  0.18789303  0.30870949  0.93484819     0.86900
C62         C  0.23841443  0.26009869  0.02057368     0.87100
O63         O  0.42318652  0.02144741  0.45074029    -0.75200
O64         O  0.46899270  0.06906534  0.50643524    -0.75200
O65         O  0.47051561  0.06750978  0.44970180    -0.75300
O66         O  0.42223470  0.02257107  0.50688169    -0.75300
O67         O  0.46024310  0.48459713  0.50707831    -0.75300
O68         O  0.00906547  0.03011567  0.45094467    -0.75300
O69         O  0.00700887  0.03117841  0.50792228    -0.75200
O70         O  0.46184295  0.48420329  0.45051120    -0.75300
Ni71       Ni  0.44495435  0.04652579  0.47841697     1.25400
Ni72       Ni  0.48597161  0.00620877  0.47916741     1.25400
C73         C  0.43550737  0.49578608  0.44060845     0.87000
C74         C  0.49446456  0.05721046  0.51740785     0.86900
C75         C  0.49706205  0.05538652  0.44013967     0.86900
C76         C  0.43365865  0.49643600  0.51666103     0.87100
C77         C  0.29641109  0.20136500  0.11598053     0.79400
N78         N  0.28374480  0.17352040  0.12663541    -0.78900
C79         C  0.29757884  0.15981606  0.14907719     0.81900
N80         N  0.32404049  0.17426494  0.16110217    -0.78800
C81         C  0.33675073  0.20218119  0.15053291     0.82000
N82         N  0.32282143  0.21569291  0.12806649    -0.80500
C83         C  0.05486845  0.10919998  0.33977845     0.79400
N84         N  0.04187833  0.13509565  0.32687584    -0.78900
C85         C  0.05507190  0.14588836  0.30252037     0.81900
N86         N  0.08131721  0.13081520  0.29121332    -0.78800
C87         C  0.09429456  0.10492461  0.30377983     0.82000
N88         N  0.08088291  0.09399063  0.32796692    -0.80500
C89         C  0.11556516  0.38696983  0.10088991     0.79400
N90         N  0.09165170  0.36988263  0.11433311    -0.78900
C91         C  0.08362738  0.37601039  0.14120236     0.81900
N92         N  0.10031834  0.39942813  0.15533314    -0.78800
C93         C  0.12466387  0.41660292  0.14236511     0.82000
N94         N  0.13211536  0.40998759  0.11545406    -0.80500
C95         C  0.38653629  0.43796204  0.33920723     0.79400
N96         N  0.36058161  0.45005160  0.32556931    -0.78900
C97         C  0.35137423  0.43770635  0.30068258     0.81900
N98         N  0.36808008  0.41290593  0.28933502    -0.78800
C99         C  0.39393247  0.40046142  0.30287056     0.82000
N100        N  0.40330592  0.41318216  0.32762824    -0.80500
C101        C  0.49170918  0.24871408  0.24098126     0.85700
C102        C  0.01306453  0.27018027  0.22203807    -0.54500
C103        C  0.49677279  0.29282961  0.20696872     0.08600
C104        C  0.45967723  0.29306810  0.21451857     0.19600
C105        C  0.47394402  0.27233229  0.26010604    -0.55300
C106        C  0.45823669  0.29613410  0.24665135     0.08700
C107        C  0.46344394  0.23570764  0.22269499    -0.54800
C108        C  0.44684453  0.25866929  0.20849349     0.09300
H109        H  0.03936510  0.26780569  0.22129084     0.13800
H110        H  0.44520803  0.31071188  0.20332034    -0.00400
H111        H  0.47328283  0.27048711  0.28247995     0.14100
H112        H  0.45601115  0.21054138  0.22190292     0.13900
C113        C  0.25011161  0.00875563  0.24355893     0.85700
C114        C  0.26381935  0.03491691  0.22387682    -0.54500
C115        C  0.24113343  0.05182646  0.20973576     0.08600
C116        C  0.20578631  0.03992233  0.21605247     0.19600
C117        C  0.22539242  0.02566542  0.26213638    -0.55300
C118        C  0.20202860  0.04171305  0.24823431     0.08700
C119        C  0.22917743  0.48755078  0.22394223    -0.54800
C120        C  0.20596326  0.00341760  0.20889611     0.09300
H121        H  0.28965369  0.03889429  0.22001482     0.13800
H122        H  0.18794745  0.05378031  0.20447602    -0.00400
H123        H  0.22585456  0.02444575  0.28466735     0.14100
H124        H  0.23282096  0.46183451  0.22197335     0.13900
C125        C  0.33320806  0.48394117  0.27321781    -0.02600
C126        C  0.32579767  0.45387518  0.28494174     0.07100
C127        C  0.29330568  0.44218193  0.28521260    -0.02700
C128        C  0.26830391  0.46039727  0.27310981    -0.02700
C129        C  0.27592631  0.49063732  0.26040349     0.07200
C130        C  0.30802766  0.50372712  0.26437602    -0.02900
Br131      Br  0.31669994  0.04964195  0.26777339    -0.01500
Br132      Br  0.37824393  0.49770923  0.26798403    -0.01600
Br133      Br  0.22352384  0.44518993  0.27770380    -0.01500
Br134      Br  0.28342786  0.40098774  0.30201182    -0.01500
C135        C  0.44410440  0.37720410  0.28100483    -0.02600
C136        C  0.41156249  0.37318697  0.29056866     0.07100
C137        C  0.39575460  0.34284677  0.28844524    -0.02700
C138        C  0.41180224  0.31708270  0.27545864    -0.02700
C139        C  0.44247508  0.32240582  0.26243188     0.07200
C140        C  0.45969463  0.35166074  0.26718432    -0.02900
Br141      Br  0.50569292  0.35547471  0.25774330    -0.01500
Br142      Br  0.46712424  0.41774238  0.28643984    -0.01600
Br143      Br  0.39313552  0.27401663  0.27783275    -0.01500
Br144      Br  0.35250636  0.33631598  0.30414988    -0.01500
C145        C  0.13132306  0.46867717  0.16888034    -0.02600
C146        C  0.14508640  0.44049604  0.15778396     0.07100
C147        C  0.17913998  0.43640473  0.15930205    -0.02700
C148        C  0.19904661  0.45975149  0.17244250    -0.02700
C149        C  0.18502691  0.48567764  0.18755597     0.07200
C150        C  0.15099133  0.49145980  0.18344799    -0.02900
Br151      Br  0.13002747  0.03085089  0.19462396    -0.01500
Br152      Br  0.08536352  0.47644160  0.16307273    -0.01600
Br153      Br  0.24576868  0.45812287  0.16575730    -0.01500
Br154      Br  0.19873996  0.39759748  0.14485458    -0.01500
C155        C  0.06474200  0.32155508  0.15721293    -0.02600
C156        C  0.05929637  0.35481792  0.15556456     0.07100
C157        C  0.02999977  0.36727906  0.16633828    -0.02700
C158        C  0.00784132  0.34738460  0.18162014    -0.02700
C159        C  0.01488537  0.31410112  0.18594991     0.07200
C160        C  0.04201916  0.30119087  0.17097562    -0.02900
Br161      Br  0.04725073  0.25526506  0.16598642    -0.01500
Br162      Br  0.10433628  0.30370832  0.14142471    -0.01600
Br163      Br  0.46840728  0.36767628  0.19482258    -0.01500
Br164      Br  0.01974477  0.41166107  0.15870701    -0.01500
C165        C  0.02823993  0.16645603  0.26015531    -0.02600
C166        C  0.03985343  0.17235842  0.28705713     0.07100
C167        C  0.04085587  0.20416772  0.29727693    -0.02700
C168        C  0.02804913  0.22954912  0.28148724    -0.02700
C169        C  0.01179411  0.22286449  0.25603933     0.07200
C170        C  0.01649236  0.19188248  0.24411799    -0.02900
Br171      Br  0.01497588  0.18500639  0.20464587    -0.01500
Br172      Br  0.02788473  0.12314416  0.24509192    -0.01600
Br173      Br  0.53912633  0.27325610  0.29260370    -0.01500
Br174      Br  0.06181446  0.21321550  0.33216169    -0.01500
C175        C  0.11747354  0.05805147  0.27771525    -0.02600
C176        C  0.12222832  0.08829877  0.29059276     0.07100
C177        C  0.15385768  0.10251086  0.29094438    -0.02700
C178        C  0.18026539  0.08699141  0.27770129    -0.02700
C179        C  0.17490837  0.05753609  0.26353809     0.07200
C180        C  0.14420976  0.04180245  0.26600294    -0.02900
Br181      Br  0.14001093  0.99632956  0.25780754    -0.01500
Br182      Br  0.07412503  0.03984300  0.27379073    -0.01600
Br183      Br  0.22412758  0.10478110  0.28084076    -0.01500
Br184      Br  0.16091576  0.14323822  0.30956062    -0.01500
C185        C  0.25316419  0.13603308  0.17857817    -0.02600
C186        C  0.28144094  0.13160541  0.16226369     0.07100
C187        C  0.29365202  0.10048953  0.15829442    -0.02700
C188        C  0.27849673  0.07393971  0.17171009    -0.02700
C189        C  0.25149408  0.07845758  0.19016486     0.07200
C190        C  0.23784597  0.10966203  0.19212320    -0.02900
Br191      Br  0.19848900  0.11793026  0.21306520    -0.01500
Br192      Br  0.23658519  0.17910598  0.18350199    -0.01600
Br193      Br  0.29416553  0.03132304  0.16310511    -0.01500
Br194      Br  0.33144429  0.09446783  0.13454532    -0.01500
C195        C  0.35968434  0.24398345  0.18266978    -0.02600
C196        C  0.36488405  0.21854880  0.16385266     0.07100
C197        C  0.39700032  0.21073145  0.15598684    -0.02700
C198        C  0.42381046  0.22650501  0.16861131    -0.02700
C199        C  0.41886442  0.24968905  0.18972271     0.07200
C200        C  0.38658758  0.26069569  0.19442348    -0.02900
Br201      Br  0.37834473  0.30081246  0.21304456    -0.01500
Br202      Br  0.31547860  0.25513270  0.19302981    -0.01600
Br203      Br  0.46712753  0.21974495  0.15408122    -0.01500
Br204      Br  0.40413437  0.17826340  0.12792337    -0.01500
C205        C  0.02457807  0.10151007  0.41469735    -0.02600
C206        C  0.01282807  0.06935818  0.41499090     0.07100
C207        C  0.01459903  0.05068763  0.39049108    -0.02700
C208        C  0.02629372  0.06458583  0.36568628    -0.02700
C209        C  0.03959195  0.09615672  0.36558361     0.07200
C210        C  0.03887424  0.11453835  0.39030036    -0.02900
Br211      Br  0.05866935  0.15698499  0.39118767    -0.01500
Br212      Br  0.52242183  0.12711133  0.44810811    -0.01600
Br213      Br  0.02105897  0.04121659  0.33138658    -0.01500
Br214      Br  0.00075964  0.00594305  0.39038204    -0.01500
C215        C  0.40083242  0.48655998  0.36836411    -0.02600
C216        C  0.39731314  0.45268647  0.36584525     0.07100
C217        C  0.40437733  0.43309322  0.38887299    -0.02700
C218        C  0.41582025  0.44714441  0.41372310    -0.02700
C219        C  0.42034731  0.48085345  0.41578401     0.07200
C220        C  0.41213221  0.50054813  0.39314327    -0.02900
Br221      Br  0.41836841  0.54697742  0.39482895    -0.01500
Br222      Br  0.39250015  0.51459699  0.33753369    -0.01600
Br223      Br  0.42352372  0.42028063  0.44548899    -0.01500
Br224      Br  0.39695563  0.38701769  0.38711446    -0.01500
C225        C  0.12662246  0.33585661  0.03537828    -0.02600
C226        C  0.15951683  0.34422360  0.02792431     0.07100
C227        C  0.17302347  0.37325977  0.03918344    -0.02700
C228        C  0.15615915  0.39011941  0.06031521    -0.02700
C229        C  0.12700791  0.37691454  0.07229049     0.07200
C230        C  0.11062944  0.35191415  0.05743945    -0.02900
Br231      Br  0.06497026  0.34104062  0.06489913    -0.01500
Br232      Br  0.10161798  0.30359821  0.01493132    -0.01600
Br233      Br  0.17192439  0.43301295  0.07012190    -0.01500
Br234      Br  0.21457039  0.39141206  0.02643326    -0.01500
C235        C  0.25472609  0.26216243  0.07024251    -0.06600
C236        C  0.25349744  0.24530300  0.04488063     0.07100
C237        C  0.26594088  0.21389078  0.04292334    -0.02700
C238        C  0.28008183  0.19953187  0.06618212    -0.02700
C239        C  0.28124700  0.21630983  0.09164507     0.07200
C240        C  0.26812412  0.24750510  0.09369980    -0.02900
Br241      Br  0.26644079  0.26941812  0.12899919    -0.01500
Br242      Br  0.23677164  0.30484704  0.07306340    -0.01600
Br243      Br  0.29898283  0.15734233  0.06278678    -0.01500
Br244      Br  0.26447851  0.19085951  0.00809615    -0.01500
C245        C  0.41691622  0.46324250  0.58851786    -0.02600
C246        C  0.38384838  0.45306244  0.58646394     0.07100
C247        C  0.36727644  0.45656894  0.56120182    -0.02700
C248        C  0.38341732  0.47101289  0.53833340    -0.02700
C249        C  0.41669530  0.48046041  0.54021606     0.07200
C250        C  0.43358759  0.47582833  0.56522839    -0.02900
Br251      Br  0.47935042  0.48796848  0.56831495    -0.01500
Br252      Br  0.43889888  0.46259519  0.62383298    -0.01600
Br253      Br  0.36019561  0.47692531  0.50415716    -0.01500
Br254      Br  0.32294428  0.44032978  0.55756815    -0.01500
C255        C  0.30415422  0.49850263  0.66162545    -0.02600
C256        C  0.30074629  0.46473230  0.65988127     0.07100
C257        C  0.27245194  0.44961916  0.67123033    -0.02700
C258        C  0.24961002  0.46769705  0.68688248    -0.02700
C259        C  0.25450405  0.50144946  0.69048440     0.07200
C260        C  0.27987695  0.51663831  0.67488455    -0.02900
Br261      Br  0.27956924  0.06226076  0.66834116    -0.01500
Br262      Br  0.34364822  0.52042486  0.64870709    -0.01600
Br263      Br  0.21197124  0.44522350  0.70206739    -0.01500
Br264      Br  0.26483735  0.40408063  0.66489313    -0.01500
C265        C  0.38473480  0.34873395  0.65521872    -0.02600
C266        C  0.38354112  0.38024781  0.66574087     0.07100
C267        C  0.39731612  0.38735098  0.69160204    -0.02700
C268        C  0.41363082  0.36332277  0.70638245    -0.02700
C269        C  0.41910697  0.33230196  0.69435540     0.07200
C270        C  0.40086411  0.32447546  0.66995199    -0.02900
Br271      Br  0.39100041  0.28059737  0.65861198    -0.01500
Br272      Br  0.36216405  0.33857183  0.62111359    -0.01600
Br273      Br  0.42262057  0.37282417  0.74468364    -0.01500
Br274      Br  0.39443410  0.43061367  0.70660226    -0.01500
C275        C  0.17921464  0.32681555  0.85853090    -0.02600
C276        C  0.14914770  0.34291145  0.85836655     0.07100
C277        C  0.13167259  0.34768335  0.88332652    -0.02700
C278        C  0.14418073  0.33621064  0.90842096    -0.02700
C279        C  0.17477016  0.32103867  0.90871025     0.07200
C280        C  0.19259460  0.31695318  0.88376370    -0.02900
Br281      Br  0.23528850  0.29771292  0.88391029    -0.01500
Br282      Br  0.20094596  0.31621653  0.82406371    -0.01600
Br283      Br  0.12020687  0.34260884  0.94259124    -0.01500
Br284      Br  0.09104508  0.37070825  0.88315503    -0.01500
C285        C  0.13451106  0.44628139  0.77127786    -0.02600
C286        C  0.15433253  0.42206372  0.78266179     0.07100
C287        C  0.18883433  0.42674138  0.78237799    -0.02700
C288        C  0.20305872  0.45534625  0.77169761    -0.02700
C289        C  0.18315915  0.47953450  0.76064059     0.07200
C290        C  0.14895921  0.47441867  0.75980124    -0.02900
Br291      Br  0.12139383  0.50622905  0.74355921    -0.01500
Br292      Br  0.08721440  0.44284562  0.77319007    -0.01600
Br293      Br  0.25035821  0.96021642  0.77039286    -0.01500
Br294      Br  0.21760105  0.39375334  0.79532490    -0.01500
C295        C  0.04637164  0.29492397  0.75203496    -0.02600
C296        C  0.01444903  0.30572559  0.75821804     0.07100
C297        C  0.51034205  0.32877813  0.77958136    -0.02700
C298        C  0.03775806  0.34425007  0.79149792    -0.02700
C299        C  0.06954310  0.33537880  0.78339571     0.07200
C300        C  0.07381028  0.30993536  0.76445360    -0.02900
Br301      Br  0.11756079  0.29615740  0.75532475    -0.01500
Br302      Br  0.05330800  0.25912982  0.72753667    -0.01600
Br303      Br  0.03181300  0.37823008  0.81842081    -0.01500
Br304      Br  0.46737959  0.33687274  0.79463317    -0.01500
C305        C  0.05349491  0.09651107  0.56852682    -0.02600
C306        C  0.03345236  0.09868102  0.59246781     0.07100
C307        C  0.00023322  0.08897604  0.59105687    -0.02700
C308        C  0.98724291  0.07713279  0.56605237    -0.02700
C309        C  0.00792343  0.07263778  0.54269158     0.07200
C310        C  0.04113498  0.08233170  0.54404563    -0.02900
Br311      Br  0.06914581  0.07808129  0.51182313    -0.01500
Br312      Br  0.09656161  0.11618955  0.56816140    -0.01600
Br313      Br  0.44092999  0.06672906  0.56440941    -0.01500
Br314      Br  0.97240933  0.09093321  0.62365569    -0.01500
C315        C  0.13424642  0.07836656  0.65960403    -0.02600
C316        C  0.10829764  0.09466841  0.67330804     0.07100
C317        C  0.10876165  0.09633324  0.70274611    -0.02700
C318        C  0.13574414  0.08485307  0.71767530    -0.02700
C319        C  0.16166571  0.06904847  0.70382114     0.07200
C320        C  0.16023435  0.06527573  0.67478925    -0.02900
Br321      Br  0.19487780  0.04364916  0.65502273    -0.01500
Br322      Br  0.13615133  0.07418253  0.61979815    -0.01600
Br323      Br  0.13609308  0.08998558  0.75759567    -0.01500
Br324      Br  0.07131374  0.11134949  0.72373057    -0.01500
C325        C  0.03041225  0.21073689  0.65864340    -0.02600
C326        C  0.02416750  0.17869009  0.66670140     0.07100
C327        C  0.99933814  0.17182471  0.68632666    -0.02700
C328        C  0.98161535  0.19700028  0.69876129    -0.02700
C329        C  0.98826020  0.22949697  0.69140510     0.07200
C330        C  0.01256597  0.23611133  0.67078209    -0.02900
Br331      Br  0.52380318  0.27989845  0.66026314    -0.01500
Br332      Br  0.06397730  0.21965140  0.63113583    -0.01600
Br333      Br  0.94719856  0.18592096  0.72474400    -0.01500
Br334      Br  0.98876266  0.12748486  0.69535344    -0.01500
C335        C  0.31427336  0.20873948  0.90558864    -0.02600
C336        C  0.29752413  0.19801260  0.88175796     0.07100
C337        C  0.26316172  0.20117860  0.88043683    -0.02700
C338        C  0.24571207  0.21472997  0.90276120    -0.02700
C339        C  0.26274340  0.22749038  0.92583733     0.07200
C340        C  0.29699967  0.22368401  0.92745509    -0.02900
Br341      Br  0.32022266  0.23752890  0.96022563    -0.01500
Br342      Br  0.36078379  0.20242750  0.90864859    -0.01600
Br343      Br  0.19847856  0.21707812  0.90038019    -0.01500
Br344      Br  0.23987137  0.19022993  0.84683350    -0.01500
C345        C  0.30639953  0.11159831  0.77883928    -0.02600
C346        C  0.29880929  0.11697778  0.80723554     0.07100
C347        C  0.26974226  0.10215021  0.81808694    -0.02700
C348        C  0.24743735  0.08587097  0.80037660    -0.02700
C349        C  0.25537605  0.08056211  0.77198630     0.07200
C350        C  0.28311692  0.09735197  0.76129361    -0.02900
Br351      Br  0.28503432  0.11043160  0.72317109    -0.01500
Br352      Br  0.34926355  0.12073593  0.76258413    -0.01600
Br353      Br  0.20311459  0.07931543  0.81411475    -0.01500
Br354      Br  0.26068909  0.10082752  0.85754352    -0.01500
C355        C  0.36272479  0.21675010  0.77542213    -0.02600
C356        C  0.37347875  0.20938861  0.80224663     0.07100
C357        C  0.40535590  0.21861990  0.81026744    -0.02700
C358        C  0.42582734  0.23672989  0.79206035    -0.02700
C359        C  0.41500909  0.24412758  0.76501646     0.07200
C360        C  0.38403884  0.23194299  0.75644468    -0.02900
Br361      Br  0.37147639  0.23219803  0.71790582    -0.01500
Br362      Br  0.31794966  0.20744400  0.76467359    -0.01600
Br363      Br  0.46820560  0.25092176  0.80490580    -0.01500
Br364      Br  0.42130612  0.20511896  0.84576643    -0.01500
C365        C  0.31540332  0.68365951  0.85797885     0.79400
N366        N  0.33905837  0.70101452  0.84425098    -0.78900
C367        C  0.35203466  0.68924069  0.82028458     0.81900
N368        N  0.34054304  0.66086031  0.81000724    -0.78800
C369        C  0.31664014  0.64340971  0.82291885     0.82000
N370        N  0.30428870  0.65529069  0.84702027    -0.80500
C371        C  0.04627518  0.61277421  0.61855881     0.79400
N372        N  0.07049784  0.59813900  0.63280267    -0.78900
C373        C  0.08142889  0.61058938  0.65732036     0.81900
N374        N  0.06713483  0.63770439  0.66749534    -0.78800
C375        C  0.04238803  0.65196397  0.65376858     0.82000
N376        N  0.03213685  0.63947196  0.62931920    -0.80500
C377        C  0.13622665  0.85511793  0.83215365     0.79400
N378        N  0.15042592  0.88133570  0.81991758    -0.78900
C379        C  0.13908405  0.89258436  0.79547079     0.81900
N380        N  0.11307877  0.87720562  0.78345547    -0.78800
C381        C  0.09832171  0.85137657  0.79595927     0.82000
N382        N  0.10998966  0.84034983  0.82027772    -0.80500
C383        C  0.36672160  0.93975964  0.61111306     0.79400
N384        N  0.34015229  0.95481718  0.62183749    -0.78900
C385        C  0.32703184  0.94556592  0.64663547     0.81900
N386        N  0.34081053  0.92102308  0.66070517    -0.78800
C387        C  0.36718527  0.90560314  0.64991604     0.82000
N388        N  0.38009509  0.91514930  0.62523337    -0.80500
C389        C  0.43971255  0.80679560  0.70963271     0.85700
C390        C  0.47008939  0.81944062  0.72532463    -0.54500
C391        C  0.48587126  0.79663985  0.74046816     0.08600
C392        C  0.47069819  0.76237223  0.73724612     0.19600
C393        C  0.45457717  0.77985563  0.69145342    -0.55300
C394        C  0.47046766  0.75643370  0.70561617     0.08700
C395        C  0.41891776  0.78961422  0.73168181    -0.54800
C396        C  0.43420014  0.76578469  0.74573937     0.09300
H397        H  0.47886940  0.84419859  0.72434010     0.13800
H398        H  0.48386320  0.74350522  0.74863166    -0.00400
H399        H  0.45467418  0.78026043  0.66902890     0.14100
H400        H  0.39345540  0.79550025  0.73541747     0.13900
C401        C  0.23490074  0.55785244  0.75292525     0.85700
C402        C  0.20863440  0.57556583  0.73677254    -0.54500
C403        C  0.19004643  0.55635809  0.71977302     0.08600
C404        C  0.20021313  0.52054527  0.71984274     0.19600
C405        C  0.21679279  0.52968418  0.76752617    -0.55300
C406        C  0.19846827  0.51030405  0.75053587     0.08700
C407        C  0.25510940  0.53991000  0.73064004    -0.54800
C408        C  0.23738070  0.52072057  0.71281562     0.09300
H409        H  0.20488195  0.60117841  0.73887531     0.13800
H410        H  0.18495126  0.00526302  0.70603076    -0.00400
H411        H  0.22037240  0.52352658  0.78915834     0.14100
H412        H  0.28176682  0.54130931  0.72964525     0.13900
O413        O  0.21714747  0.73828731  0.95578870    -0.75200
O414        O  0.16803180  0.79460407  0.00268525    -0.75200
O415        O  0.17327594  0.78502613  0.94698890    -0.75300
O416        O  0.21192711  0.74770238  0.01099623    -0.75300
O417        O  0.25203970  0.78490984  0.00935680    -0.75300
O418        O  0.21419303  0.82131777  0.94458927    -0.75300
O419        O  0.20754243  0.83155527  0.99997421    -0.75200
O420        O  0.25771314  0.77484004  0.95379576    -0.75300
Ni421      Ni  0.19112276  0.76516474  0.97923133     1.25400
Ni422      Ni  0.23433024  0.80448436  0.97696192     1.25400
C423        C  0.24522898  0.74755974  0.94651907     0.87000
C424        C  0.17922340  0.82264128  0.00904675     0.86900
C425        C  0.18789297  0.80870934  0.93484840     0.86900
C426        C  0.23841463  0.76009860  0.02057384     0.87100
O427        O  0.42318689  0.52144737  0.45074000    -0.75200
O428        O  0.46899274  0.56906522  0.50643523    -0.75200
O429        O  0.47051601  0.56750970  0.44970181    -0.75300
O430        O  0.42223469  0.52257096  0.50688144    -0.75300
O431        O  0.46024313  0.98459726  0.50707845    -0.75300
O432        O  0.00906479  0.53011562  0.45094444    -0.75300
O433        O  0.00700857  0.53117857  0.50792207    -0.75200
O434        O  0.46184259  0.98420334  0.45051132    -0.75300
Ni435      Ni  0.44495454  0.54652570  0.47841683     1.25400
Ni436      Ni  0.48597179  0.50620867  0.47916744     1.25400
C437        C  0.43550693  0.99578612  0.44060870     0.87000
C438        C  0.49446456  0.55721035  0.51740791     0.86900
C439        C  0.49706253  0.55538645  0.44013983     0.86900
C440        C  0.43365872  0.99643612  0.51666125     0.87100
C441        C  0.29641131  0.70136504  0.11598075     0.79400
N442        N  0.28374504  0.67352041  0.12663558    -0.78900
C443        C  0.29757910  0.65981602  0.14907732     0.81900
N444        N  0.32404075  0.67426489  0.16110233    -0.78800
C445        C  0.33675097  0.70218118  0.15053311     0.82000
N446        N  0.32282164  0.71569295  0.12806672    -0.80500
C447        C  0.05486828  0.60919970  0.33977838     0.79400
N448        N  0.04187827  0.63509545  0.32687578    -0.78900
C449        C  0.05507191  0.64588815  0.30252034     0.81900
N450        N  0.08131718  0.63081492  0.29121332    -0.78800
C451        C  0.09429443  0.60492426  0.30377981     0.82000
N452        N  0.08088271  0.59399029  0.32796687    -0.80500
C453        C  0.11556519  0.88696979  0.10088978     0.79400
N454        N  0.09165182  0.86988250  0.11433299    -0.78900
C455        C  0.08362761  0.87601014  0.14120229     0.81900
N456        N  0.10031862  0.89942786  0.15533308    -0.78800
C457        C  0.12466409  0.91660271  0.14236504     0.82000
N458        N  0.13211548  0.90998749  0.11545395    -0.80500
C459        C  0.38653544  0.93796189  0.33920769     0.79400
N460        N  0.36058068  0.95005123  0.32556973    -0.78900
C461        C  0.35137355  0.93770601  0.30068293     0.81900
N462        N  0.36807968  0.91290580  0.28933534    -0.78800
C463        C  0.39393212  0.90046144  0.30287095     0.82000
N464        N  0.40330535  0.91318221  0.32762867    -0.80500
C465        C  0.49170921  0.74871425  0.24098169     0.85700
C466        C  0.01306463  0.77018004  0.22203795    -0.54500
C467        C  0.49677283  0.79282982  0.20696917     0.08600
C468        C  0.45967726  0.79306827  0.21451900     0.19600
C469        C  0.47394404  0.77233244  0.26010648    -0.55300
C470        C  0.45823669  0.79613425  0.24665178     0.08700
C471        C  0.46344400  0.73570781  0.22269540    -0.54800
C472        C  0.44684459  0.75866944  0.20849389     0.09300
H473        H  0.03936523  0.76780543  0.22129074     0.13800
H474        H  0.44520804  0.81071204  0.20332076    -0.00400
H475        H  0.47328289  0.77048727  0.28248035     0.14100
H476        H  0.45601119  0.71054149  0.22190333     0.13900
C477        C  0.25011172  0.50875562  0.24355887     0.85700
C478        C  0.26381940  0.53491692  0.22387676    -0.54500
C479        C  0.24113346  0.55182647  0.20973575     0.08600
C480        C  0.20578636  0.53992234  0.21605248     0.19600
C481        C  0.22539253  0.52566536  0.26213636    -0.55300
C482        C  0.20202868  0.54171300  0.24823433     0.08700
C483        C  0.22917736  0.98755075  0.22394229    -0.54800
C484        C  0.20596330  0.50341762  0.20889609     0.09300
H485        H  0.28965378  0.53889429  0.22001473     0.13800
H486        H  0.18794754  0.55378030  0.20447608    -0.00400
H487        H  0.22585469  0.52444563  0.28466733     0.14100
H488        H  0.23282084  0.96183468  0.22197347     0.13900
C489        C  0.33320777  0.98394081  0.27321800    -0.02600
C490        C  0.32579715  0.95387489  0.28494198     0.07100
C491        C  0.29330506  0.94218192  0.28521296    -0.02700
C492        C  0.26830344  0.96039739  0.27311009    -0.02700
C493        C  0.27592609  0.99063729  0.26040362     0.07200
C494        C  0.30802753  0.00372691  0.26437613    -0.02900
Br495      Br  0.31669977  0.54964220  0.26777342    -0.01500
Br496      Br  0.37824375  0.99770872  0.26798453    -0.01600
Br497      Br  0.22352324  0.94519047  0.27770418    -0.01500
Br498      Br  0.28342689  0.90098800  0.30201254    -0.01500
C499        C  0.44410427  0.87720413  0.28100549    -0.02600
C500        C  0.41156227  0.87318702  0.29056911     0.07100
C501        C  0.39575436  0.84284683  0.28844549    -0.02700
C502        C  0.41180209  0.81708279  0.27545894    -0.02700
C503        C  0.44247501  0.82240594  0.26243232     0.07200
C504        C  0.45969455  0.85166083  0.26718492    -0.02900
Br505      Br  0.50569285  0.85547484  0.25774393    -0.01500
Br506      Br  0.46712418  0.91774229  0.28644088    -0.01600
Br507      Br  0.39313542  0.77401671  0.27783296    -0.01500
Br508      Br  0.35250596  0.83631603  0.30414982    -0.01500
C509        C  0.13132314  0.96867692  0.16888036    -0.02600
C510        C  0.14508658  0.94049588  0.15778389     0.07100
C511        C  0.17914020  0.93640473  0.15930190    -0.02700
C512        C  0.19904674  0.95975152  0.17244244    -0.02700
C513        C  0.18502695  0.98567758  0.18755596     0.07200
C514        C  0.15099135  0.99145963  0.18344798    -0.02900
Br515      Br  0.13002748  0.53085101  0.19462418    -0.01500
Br516      Br  0.08536354  0.97644115  0.16307293    -0.01600
Br517      Br  0.24576883  0.95812312  0.16575730    -0.01500
Br518      Br  0.19874037  0.89759769  0.14485420    -0.01500
C519        C  0.06474212  0.82155479  0.15721272    -0.02600
C520        C  0.05929660  0.85481767  0.15556446     0.07100
C521        C  0.03000005  0.86727885  0.16633824    -0.02700
C522        C  0.00784159  0.84738440  0.18162010    -0.02700
C523        C  0.01488556  0.81410090  0.18594979     0.07200
C524        C  0.04201927  0.80119061  0.17097543    -0.02900
Br525      Br  0.04725073  0.75526479  0.16598622    -0.01500
Br526      Br  0.10433625  0.80370795  0.14142430    -0.01600
Br527      Br  0.46840724  0.86767648  0.19482309    -0.01500
Br528      Br  0.01974508  0.91166088  0.15870700    -0.01500
C529        C  0.02823997  0.66645584  0.26015527    -0.02600
C530        C  0.03985348  0.67235823  0.28705709     0.07100
C531        C  0.04085585  0.70416752  0.29727691    -0.02700
C532        C  0.02804906  0.72954892  0.28148722    -0.02700
C533        C  0.01179410  0.72286429  0.25603928     0.07200
C534        C  0.01649241  0.69188228  0.24411794    -0.02900
Br535      Br  0.01497608  0.68500623  0.20464583    -0.01500
Br536      Br  0.02788472  0.62314396  0.24509190    -0.01600
Br537      Br  0.53912656  0.77325632  0.29260394    -0.01500
Br538      Br  0.06181441  0.71321530  0.33216168    -0.01500
C539        C  0.11747358  0.55805109  0.27771535    -0.02600
C540        C  0.12222824  0.58829845  0.29059281     0.07100
C541        C  0.15385754  0.60251066  0.29094438    -0.02700
C542        C  0.18026530  0.58699130  0.27770128    -0.02700
C543        C  0.17490840  0.55753594  0.26353812     0.07200
C544        C  0.14420986  0.54180216  0.26600303    -0.02900
Br545      Br  0.14001122  0.49632925  0.25780769    -0.01500
Br546      Br  0.07412513  0.53984241  0.27379094    -0.01600
Br547      Br  0.22412741  0.60478118  0.28084072    -0.01500
Br548      Br  0.16091547  0.64323806  0.30956061    -0.01500
C549        C  0.25316439  0.63603309  0.17857826    -0.02600
C550        C  0.28144114  0.63160539  0.16226379     0.07100
C551        C  0.29365208  0.60048946  0.15829441    -0.02700
C552        C  0.27849671  0.57393966  0.17171002    -0.02700
C553        C  0.25149410  0.57845757  0.19016483     0.07200
C554        C  0.23784605  0.60966204  0.19212320    -0.02900
Br555      Br  0.19848898  0.61793027  0.21306505    -0.01500
Br556      Br  0.23658550  0.67910602  0.18350215    -0.01600
Br557      Br  0.29416528  0.53132293  0.16310493    -0.01500
Br558      Br  0.33144421  0.59446768  0.13454517    -0.01500
C559        C  0.35968448  0.74398348  0.18267002    -0.02600
C560        C  0.36488426  0.71854882  0.16385291     0.07100
C561        C  0.39700057  0.71073155  0.15598712    -0.02700
C562        C  0.42381066  0.72650513  0.16861166    -0.02700
C563        C  0.41886454  0.74968916  0.18972306     0.07200
C564        C  0.38658767  0.76069576  0.19442375    -0.02900
Br565      Br  0.37834474  0.80081256  0.21304478    -0.01500
Br566      Br  0.31547872  0.75513273  0.19302996    -0.01600
Br567      Br  0.46712778  0.71974512  0.15408165    -0.01500
Br568      Br  0.40413476  0.67826365  0.12792354    -0.01500
C569        C  0.02457768  0.60150989  0.41469719    -0.02600
C570        C  0.01282732  0.56935811  0.41499066     0.07100
C571        C  0.01459811  0.55068761  0.39049080    -0.02700
C572        C  0.02629306  0.56458575  0.36568606    -0.02700
C573        C  0.03959166  0.59615648  0.36558349     0.07200
C574        C  0.03887409  0.61453805  0.39030026    -0.02900
Br575      Br  0.05866979  0.65698444  0.39118768    -0.01500
Br576      Br  0.52242205  0.62711130  0.44810835    -0.01600
Br577      Br  0.02105820  0.54121667  0.33138627    -0.01500
Br578      Br  0.00075816  0.50594319  0.39038164    -0.01500
C579        C  0.40083051  0.98656000  0.36836484    -0.02600
C580        C  0.39731207  0.95268642  0.36584576     0.07100
C581        C  0.40437701  0.93309314  0.38887331    -0.02700
C582        C  0.41582004  0.94714436  0.41372337    -0.02700
C583        C  0.42034664  0.98085344  0.41578438     0.07200
C584        C  0.41213077  0.00054813  0.39314386    -0.02900
Br585      Br  0.41836669  0.04697747  0.39482956    -0.01500
Br586      Br  0.39249607  0.01459729  0.33753503    -0.01600
Br587      Br  0.42352435  0.92028050  0.44548906    -0.01500
Br588      Br  0.39695609  0.88701750  0.38711467    -0.01500
C589        C  0.12662244  0.83585657  0.03537824    -0.02600
C590        C  0.15951688  0.84422345  0.02792443     0.07100
C591        C  0.17302356  0.87325962  0.03918357    -0.02700
C592        C  0.15615905  0.89011945  0.06031509    -0.02700
C593        C  0.12700781  0.87691462  0.07229032     0.07200
C594        C  0.11062934  0.85191423  0.05743929    -0.02900
Br595      Br  0.06497005  0.84104101  0.06489879    -0.01500
Br596      Br  0.10161802  0.80359808  0.01493133    -0.01600
Br597      Br  0.17192392  0.93301321  0.07012144    -0.01500
Br598      Br  0.21457092  0.89141149  0.02643401    -0.01500
C599        C  0.25472608  0.76216230  0.07024274    -0.06600
C600        C  0.25349767  0.74530295  0.04488081     0.07100
C601        C  0.26594133  0.71389081  0.04292350    -0.02700
C602        C  0.28008234  0.69953197  0.06618230    -0.02700
C603        C  0.28124724  0.71630985  0.09164528     0.07200
C604        C  0.26812407  0.74750499  0.09370005    -0.02900
Br605      Br  0.26644030  0.76941779  0.12899952    -0.01500
Br606      Br  0.23677137  0.80484680  0.07306369    -0.01600
Br607      Br  0.29898378  0.65734262  0.06278695    -0.01500
Br608      Br  0.26447916  0.69085952  0.00809632    -0.01500
C609        C  0.41691618  0.96324296  0.58851816    -0.02600
C610        C  0.38384844  0.95306261  0.58646414     0.07100
C611        C  0.36727661  0.95656878  0.56120193    -0.02700
C612        C  0.38341751  0.97101272  0.53833351    -0.02700
C613        C  0.41669541  0.98046051  0.54021628     0.07200
C614        C  0.43358760  0.97582868  0.56522868    -0.02900
Br615      Br  0.47935040  0.98796889  0.56831528    -0.01500
Br616      Br  0.43889858  0.96259621  0.62383341    -0.01600
Br617      Br  0.36019598  0.97692471  0.50415712    -0.01500
Br618      Br  0.32294465  0.94032915  0.55756814    -0.01500
C619        C  0.30415381  0.99850283  0.66162521    -0.02600
C620        C  0.30074617  0.96473245  0.65988128     0.07100
C621        C  0.27245197  0.94961919  0.67123051    -0.02700
C622        C  0.24961003  0.96769701  0.68688268    -0.02700
C623        C  0.25450390  0.00144945  0.69048446     0.07200
C624        C  0.27987653  0.01663841  0.67488440    -0.02900
Br625      Br  0.27957007  0.56226068  0.66834137    -0.01500
Br626      Br  0.34364740  0.02042533  0.64870627    -0.01600
Br627      Br  0.21197142  0.94522339  0.70206781    -0.01500
Br628      Br  0.26483758  0.90408060  0.66489351    -0.01500
C629        C  0.38473485  0.84873432  0.65521891    -0.02600
C630        C  0.38354117  0.88024813  0.66574116     0.07100
C631        C  0.39731605  0.88735117  0.69160240    -0.02700
C632        C  0.41363074  0.86332290  0.70638274    -0.02700
C633        C  0.41910686  0.83230212  0.69435561     0.07200
C634        C  0.40086402  0.82447574  0.66995217    -0.02900
Br635      Br  0.39099999  0.78059771  0.65861220    -0.01500
Br636      Br  0.36216429  0.83857238  0.62111364    -0.01600
Br637      Br  0.42262060  0.87282419  0.74468393    -0.01500
Br638      Br  0.39443383  0.93061376  0.70660282    -0.01500
C639        C  0.17921451  0.82681569  0.85853116    -0.02600
C640        C  0.14914763  0.84291167  0.85836688     0.07100
C641        C  0.13167252  0.84768346  0.88332687    -0.02700
C642        C  0.14418054  0.83621040  0.90842124    -0.02700
C643        C  0.17477004  0.82103855  0.90871049     0.07200
C644        C  0.19259454  0.81695331  0.88376394    -0.02900
Br645      Br  0.23528864  0.79771346  0.88391049    -0.01500
Br646      Br  0.20094566  0.81621650  0.82406394    -0.01600
Br647      Br  0.12020633  0.84260784  0.94259145    -0.01500
Br648      Br  0.09104525  0.87070876  0.88315550    -0.01500
C649        C  0.13451095  0.94628175  0.77127825    -0.02600
C650        C  0.15433238  0.92206406  0.78266221     0.07100
C651        C  0.18883418  0.92674161  0.78237834    -0.02700
C652        C  0.20305863  0.95534643  0.77169794    -0.02700
C653        C  0.18315911  0.97953470  0.76064087     0.07200
C654        C  0.14895915  0.97441896  0.75980156    -0.02900
Br655      Br  0.12139385  0.00622935  0.74355946    -0.01500
Br656      Br  0.08721427  0.94284605  0.77319048    -0.01600
Br657      Br  0.25035829  0.46021633  0.77039245    -0.01500
Br658      Br  0.21760081  0.89375342  0.79532514    -0.01500
C659        C  0.04637187  0.79492437  0.75203497    -0.02600
C660        C  0.01444920  0.80572588  0.75821798     0.07100
C661        C  0.51034203  0.82877781  0.77958153    -0.02700
C662        C  0.03775799  0.84425028  0.79149808    -0.02700
C663        C  0.06954309  0.83537907  0.78339598     0.07200
C664        C  0.07381041  0.80993571  0.76445381    -0.02900
Br665      Br  0.11756100  0.79615779  0.75532517    -0.01500
Br666      Br  0.05330845  0.75913052  0.72753642    -0.01600
Br667      Br  0.03181274  0.87823019  0.81842103    -0.01500
Br668      Br  0.46737957  0.83687237  0.79463336    -0.01500
C669        C  0.05349492  0.59651106  0.56852647    -0.02600
C670        C  0.03345242  0.59868122  0.59246748     0.07100
C671        C  0.00023323  0.58897639  0.59105662    -0.02700
C672        C  0.98724282  0.57713309  0.56605217    -0.02700
C673        C  0.00792325  0.57263795  0.54269135     0.07200
C674        C  0.04113485  0.58233170  0.54404532    -0.02900
Br675      Br  0.06914555  0.57808114  0.51182275    -0.01500
Br676      Br  0.09656175  0.61618924  0.56816096    -0.01600
Br677      Br  0.44092998  0.56672870  0.56440944    -0.01500
Br678      Br  0.97240941  0.59093381  0.62365546    -0.01500
C679        C  0.13424643  0.57836653  0.65960384    -0.02600
C680        C  0.10829756  0.59466828  0.67330780     0.07100
C681        C  0.10876140  0.59633298  0.70274588    -0.02700
C682        C  0.13574384  0.58485283  0.71767513    -0.02700
C683        C  0.16166554  0.56904837  0.70382101     0.07200
C684        C  0.16023435  0.56527577  0.67478910    -0.02900
Br685      Br  0.19487813  0.54364965  0.65502263    -0.01500
Br686      Br  0.13615143  0.57418257  0.61979796    -0.01600
Br687      Br  0.13609258  0.58998520  0.75759552    -0.01500
Br688      Br  0.07131326  0.61134891  0.72373019    -0.01500
C689        C  0.03041281  0.71073717  0.65864319    -0.02600
C690        C  0.02416795  0.67869035  0.66670107     0.07100
C691        C  0.99933853  0.67182493  0.68632627    -0.02700
C692        C  0.98161581  0.69700049  0.69876099    -0.02700
C693        C  0.98826074  0.72949720  0.69140491     0.07200
C694        C  0.01256653  0.73611160  0.67078192    -0.02900
Br695      Br  0.52380278  0.77989842  0.66026306    -0.01500
Br696      Br  0.06397795  0.71965171  0.63113570    -0.01600
Br697      Br  0.94719899  0.68592111  0.72474365    -0.01500
Br698      Br  0.98876287  0.62748506  0.69535282    -0.01500
C699        C  0.31427335  0.70873946  0.90558868    -0.02600
C700        C  0.29752407  0.69801261  0.88175801     0.07100
C701        C  0.26316168  0.70117880  0.88043686    -0.02700
C702        C  0.24571209  0.71473018  0.90276123    -0.02700
C703        C  0.26274346  0.72749047  0.92583739     0.07200
C704        C  0.29699972  0.72368407  0.92745512    -0.02900
Br705      Br  0.32022283  0.73752915  0.96022554    -0.01500
Br706      Br  0.36078377  0.70242735  0.90864859    -0.01600
Br707      Br  0.19847860  0.71707865  0.90038017    -0.01500
Br708      Br  0.23987134  0.69023044  0.84683346    -0.01500
C709        C  0.30639908  0.61159863  0.77883912    -0.02600
C710        C  0.29880894  0.61697798  0.80723542     0.07100
C711        C  0.26974199  0.60215028  0.81808686    -0.02700
C712        C  0.24743711  0.58587095  0.80037654    -0.02700
C713        C  0.25537575  0.58056218  0.77198622     0.07200
C714        C  0.28311647  0.59735225  0.76129348    -0.02900
Br715      Br  0.28503359  0.61043203  0.72317101    -0.01500
Br716      Br  0.34926299  0.62073646  0.76258384    -0.01600
Br717      Br  0.20311444  0.57931507  0.81411480    -0.01500
Br718      Br  0.26068893  0.60082754  0.85754345    -0.01500
C719        C  0.36272455  0.71675033  0.77542230    -0.02600
C720        C  0.37347863  0.70938861  0.80224670     0.07100
C721        C  0.40535589  0.71861965  0.81026741    -0.02700
C722        C  0.42582731  0.73672968  0.79206033    -0.02700
C723        C  0.41500894  0.74412758  0.76501651     0.07200
C724        C  0.38403858  0.73194318  0.75644481    -0.02900
Br725      Br  0.37147591  0.73219839  0.71790601    -0.01500
Br726      Br  0.31794927  0.70744461  0.76467396    -0.01600
Br727      Br  0.46820566  0.75092133  0.80490573    -0.01500
Br728      Br  0.42130627  0.70511833  0.84576623    -0.01500
C729        C  0.81540330  0.18365932  0.85797901     0.79400
N730        N  0.83905832  0.20101435  0.84425114    -0.78900
C731        C  0.85203469  0.18924051  0.82028478     0.81900
N732        N  0.84054317  0.16086006  0.81000747    -0.78800
C733        C  0.81664029  0.14340945  0.82291907     0.82000
N734        N  0.80428876  0.15529045  0.84702045    -0.80500
C735        C  0.54627540  0.11277427  0.61855888     0.79400
N736        N  0.57049812  0.09813913  0.63280270    -0.78900
C737        C  0.58142917  0.11058951  0.65732038     0.81900
N738        N  0.56713506  0.13770449  0.66749538    -0.78800
C739        C  0.54238818  0.15196400  0.65376866     0.82000
N740        N  0.53213699  0.13947198  0.62931930    -0.80500
C741        C  0.63622660  0.35511794  0.83215358     0.79400
N742        N  0.65042588  0.38133573  0.81991754    -0.78900
C743        C  0.63908407  0.39258440  0.79547073     0.81900
N744        N  0.61307881  0.37720566  0.78345537    -0.78800
C745        C  0.59832174  0.35137660  0.79595913     0.82000
N746        N  0.60998964  0.34034984  0.82027759    -0.80500
C747        C  0.86672138  0.43975922  0.61111301     0.79400
N748        N  0.84015213  0.45481686  0.62183746    -0.78900
C749        C  0.82703166  0.44556564  0.64663545     0.81900
N750        N  0.84081030  0.42102278  0.66070516    -0.78800
C751        C  0.86718501  0.40560278  0.64991603     0.82000
N752        N  0.88009482  0.41514887  0.62523333    -0.80500
C753        C  0.93971243  0.30679545  0.70963281     0.85700
C754        C  0.97008928  0.31944048  0.72532470    -0.54500
C755        C  0.98587113  0.29663973  0.74046826     0.08600
C756        C  0.97069803  0.26237212  0.73724628     0.19600
C757        C  0.95457702  0.27985543  0.69145355    -0.55300
C758        C  0.97046748  0.25643352  0.70561634     0.08700
C759        C  0.91891762  0.28961415  0.73168195    -0.54800
C760        C  0.93419999  0.26578463  0.74573955     0.09300
H761        H  0.97886933  0.34419841  0.72434010     0.13800
H762        H  0.98386302  0.24350512  0.74863187    -0.00400
H763        H  0.95467405  0.28026020  0.66902918     0.14100
H764        H  0.89345531  0.29550019  0.73541761     0.13900
C765        C  0.73490086  0.05785235  0.75292540     0.85700
C766        C  0.70863457  0.07556576  0.73677267    -0.54500
C767        C  0.69004657  0.05635804  0.71977315     0.08600
C768        C  0.70021321  0.02054521  0.71984292     0.19600
C769        C  0.71679287  0.02968413  0.76752633    -0.55300
C770        C  0.69846832  0.01030402  0.75053605     0.08700
C771        C  0.75510950  0.03990988  0.73064021    -0.54800
C772        C  0.73738077  0.02072048  0.71281580     0.09300
H773        H  0.70488218  0.10117839  0.73887540     0.13800
H774        H  0.68495129  0.50526311  0.70603067    -0.00400
H775        H  0.72037248  0.02352653  0.78915851     0.14100
H776        H  0.78176690  0.04130918  0.72964541     0.13900
O777        O  0.71714741  0.23828733  0.95578878    -0.75200
O778        O  0.66803164  0.29460421  0.00268517    -0.75200
O779        O  0.67327584  0.28502611  0.94698886    -0.75300
O780        O  0.71192699  0.24770260  0.01099630    -0.75300
O781        O  0.75203960  0.28491003  0.00935677    -0.75300
O782        O  0.71419290  0.32131778  0.94458918    -0.75300
O783        O  0.70754228  0.33155539  0.99997410    -0.75200
O784        O  0.75771305  0.27484008  0.95379575    -0.75300
Ni785      Ni  0.69112265  0.26516482  0.97923134     1.25400
Ni786      Ni  0.73433012  0.30448445  0.97696185     1.25400
C787        C  0.74522891  0.24755975  0.94651913     0.87000
C788        C  0.67922325  0.32264142  0.00904664     0.86900
C789        C  0.68789284  0.30870932  0.93484834     0.86900
C790        C  0.73841452  0.26009882  0.02057386     0.87100
O791        O  0.92318687  0.02144740  0.45074001    -0.75200
O792        O  0.96899273  0.06906509  0.50643534    -0.75200
O793        O  0.97051602  0.06750968  0.44970193    -0.75300
O794        O  0.92223461  0.02257088  0.50688146    -0.75300
O795        O  0.96024276  0.48459716  0.50707847    -0.75300
O796        O  0.50906510  0.03011579  0.45094440    -0.75300
O797        O  0.50700890  0.03117871  0.50792206    -0.75200
O798        O  0.96184224  0.48420319  0.45051135    -0.75300
Ni799      Ni  0.94495452  0.04652565  0.47841690     1.25400
Ni800      Ni  0.98597173  0.00620858  0.47916749     1.25400
C801        C  0.93550662  0.49578600  0.44060869     0.87000
C802        C  0.99446453  0.05721019  0.51740802     0.86900
C803        C  0.99706252  0.05538643  0.44013992     0.86900
C804        C  0.93365836  0.49643602  0.51666126     0.87100
C805        C  0.79641126  0.20136514  0.11598068     0.79400
N806        N  0.78374494  0.17352051  0.12663549    -0.78900
C807        C  0.79757893  0.15981612  0.14907727     0.81900
N808        N  0.82404054  0.17426498  0.16110233    -0.78800
C809        C  0.83675080  0.20218127  0.15053315     0.82000
N810        N  0.82282154  0.21569304  0.12806673    -0.80500
C811        C  0.55486827  0.10919990  0.33977824     0.79400
N812        N  0.54187819  0.13509556  0.32687558    -0.78900
C813        C  0.55507182  0.14588821  0.30252012     0.81900
N814        N  0.58131714  0.13081502  0.29121314    -0.78800
C815        C  0.59429446  0.10492444  0.30377971     0.82000
N816        N  0.58088274  0.09399052  0.32796679    -0.80500
C817        C  0.61556516  0.38696986  0.10088973     0.79400
N818        N  0.59165178  0.36988255  0.11433293    -0.78900
C819        C  0.58362763  0.37601012  0.14120225     0.81900
N820        N  0.60031866  0.39942779  0.15533307    -0.78800
C821        C  0.62466413  0.41660267  0.14236503     0.82000
N822        N  0.63211546  0.40998752  0.11545392    -0.80500
C823        C  0.88653552  0.43796180  0.33920759     0.79400
N824        N  0.86058079  0.45005119  0.32556963    -0.78900
C825        C  0.85137364  0.43770599  0.30068283     0.81900
N826        N  0.86807974  0.41290575  0.28933525    -0.78800
C827        C  0.89393215  0.40046136  0.30287085     0.82000
N828        N  0.90330540  0.41318210  0.32762858    -0.80500
C829        C  0.99170923  0.24871422  0.24098156     0.85700
C830        C  0.51306451  0.27018009  0.22203777    -0.54500
C831        C  0.99677278  0.29282977  0.20696903     0.08600
C832        C  0.95967723  0.29306821  0.21451890     0.19600
C833        C  0.97394405  0.27233239  0.26010636    -0.55300
C834        C  0.95823669  0.29613419  0.24665167     0.08700
C835        C  0.96344400  0.23570774  0.22269529    -0.54800
C836        C  0.94684456  0.25866938  0.20849380     0.09300
H837        H  0.53936510  0.26780545  0.22129052     0.13800
H838        H  0.94520797  0.31071202  0.20332065    -0.00400
H839        H  0.97328288  0.27048720  0.28248022     0.14100
H840        H  0.95601125  0.21054149  0.22190320     0.13900
C841        C  0.75011169  0.00875564  0.24355886     0.85700
C842        C  0.76381938  0.03491692  0.22387671    -0.54500
C843        C  0.74113344  0.05182646  0.20973568     0.08600
C844        C  0.70578634  0.03992235  0.21605245     0.19600
C845        C  0.72539255  0.02566545  0.26213634    -0.55300
C846        C  0.70202870  0.04171309  0.24823430     0.08700
C847        C  0.72917735  0.48755070  0.22394228    -0.54800
C848        C  0.70596325  0.00341762  0.20889610     0.09300
H849        H  0.78965380  0.03889433  0.22001473     0.13800
H850        H  0.68794747  0.05378032  0.20447603    -0.00400
H851        H  0.72585472  0.02444577  0.28466731     0.14100
H852        H  0.73282082  0.46183462  0.22197347     0.13900
C853        C  0.83320783  0.48394078  0.27321792    -0.02600
C854        C  0.82579723  0.45387487  0.28494191     0.07100
C855        C  0.79330515  0.44218187  0.28521288    -0.02700
C856        C  0.76830351  0.46039733  0.27311004    -0.02700
C857        C  0.77592614  0.49063725  0.26040357     0.07200
C858        C  0.80802757  0.50372687  0.26437606    -0.02900
Br859      Br  0.81669960  0.04964231  0.26777354    -0.01500
Br860      Br  0.87824379  0.49770866  0.26798431    -0.01600
Br861      Br  0.72352333  0.44519040  0.27770417    -0.01500
Br862      Br  0.78342703  0.40098789  0.30201237    -0.01500
C863        C  0.94410425  0.37720411  0.28100528    -0.02600
C864        C  0.91156229  0.37318695  0.29056900     0.07100
C865        C  0.89575440  0.34284675  0.28844543    -0.02700
C866        C  0.91180212  0.31708272  0.27545885    -0.02700
C867        C  0.94247502  0.32240588  0.26243220     0.07200
C868        C  0.95969452  0.35166081  0.26718472    -0.02900
Br869      Br  0.00569277  0.35547493  0.25774356    -0.01500
Br870      Br  0.96712405  0.41774237  0.28644047    -0.01600
Br871      Br  0.89313536  0.27401666  0.27783276    -0.01500
Br872      Br  0.85250605  0.33631594  0.30414983    -0.01500
C873        C  0.63132318  0.46867689  0.16888031    -0.02600
C874        C  0.64508662  0.44049584  0.15778387     0.07100
C875        C  0.67914024  0.43640470  0.15930187    -0.02700
C876        C  0.69904678  0.45975149  0.17244241    -0.02700
C877        C  0.68502698  0.48567755  0.18755591     0.07200
C878        C  0.65099140  0.49145962  0.18344790    -0.02900
Br879      Br  0.63002743  0.03085103  0.19462403    -0.01500
Br880      Br  0.58536357  0.47644110  0.16307289    -0.01600
Br881      Br  0.74576888  0.45812304  0.16575732    -0.01500
Br882      Br  0.69874044  0.39759769  0.14485414    -0.01500
C883        C  0.56474201  0.32155476  0.15721257    -0.02600
C884        C  0.55929656  0.35481766  0.15556438     0.07100
C885        C  0.53000001  0.36727887  0.16633814    -0.02700
C886        C  0.50784148  0.34738443  0.18161992    -0.02700
C887        C  0.51488541  0.31410092  0.18594961     0.07200
C888        C  0.54201910  0.30119060  0.17097525    -0.02900
Br889      Br  0.54725044  0.25526477  0.16598598    -0.01500
Br890      Br  0.60433608  0.30370786  0.14142410    -0.01600
Br891      Br  0.96840710  0.36767641  0.19482281    -0.01500
Br892      Br  0.51974513  0.41166093  0.15870697    -0.01500
C893        C  0.52823989  0.16645587  0.26015504    -0.02600
C894        C  0.53985338  0.17235827  0.28705685     0.07100
C895        C  0.54085572  0.20416755  0.29727670    -0.02700
C896        C  0.52804899  0.22954895  0.28148700    -0.02700
C897        C  0.51179402  0.22286433  0.25603906     0.07200
C898        C  0.51649228  0.19188231  0.24411772    -0.02900
Br899      Br  0.51497572  0.18500618  0.20464562    -0.01500
Br900      Br  0.52788463  0.12314397  0.24509170    -0.01600
Br901      Br  0.03912646  0.27325630  0.29260390    -0.01500
Br902      Br  0.56181411  0.21321529  0.33216155    -0.01500
C903        C  0.61747362  0.05805124  0.27771533    -0.02600
C904        C  0.62222829  0.08829861  0.29059275     0.07100
C905        C  0.65385760  0.10251080  0.29094434    -0.02700
C906        C  0.68026536  0.08699141  0.27770127    -0.02700
C907        C  0.67490844  0.05753606  0.26353810     0.07200
C908        C  0.64420989  0.04180231  0.26600299    -0.02900
Br909      Br  0.64001123  0.99632941  0.25780755    -0.01500
Br910      Br  0.57412519  0.03984248  0.27379108    -0.01600
Br911      Br  0.72412747  0.10478128  0.28084071    -0.01500
Br912      Br  0.66091555  0.14323818  0.30956060    -0.01500
C913        C  0.75316425  0.13603313  0.17857821    -0.02600
C914        C  0.78144097  0.13160546  0.16226369     0.07100
C915        C  0.79365193  0.10048956  0.15829427    -0.02700
C916        C  0.77849669  0.07393974  0.17170997    -0.02700
C917        C  0.75149407  0.07845759  0.19016478     0.07200
C918        C  0.73784596  0.10966204  0.19212314    -0.02900
Br919      Br  0.69848889  0.11793024  0.21306501    -0.01500
Br920      Br  0.73658536  0.17910605  0.18350216    -0.01600
Br921      Br  0.79416552  0.03132307  0.16310499    -0.01500
Br922      Br  0.83144388  0.09446783  0.13454480    -0.01500
C923        C  0.85968438  0.24398353  0.18267004    -0.02600
C924        C  0.86488411  0.21854884  0.16385296     0.07100
C925        C  0.89700038  0.21073149  0.15598716    -0.02700
C926        C  0.92381051  0.22650506  0.16861164    -0.02700
C927        C  0.91886446  0.24968912  0.18972302     0.07200
C928        C  0.88658761  0.26069579  0.19442373    -0.02900
Br929      Br  0.87834473  0.30081269  0.21304461    -0.01500
Br930      Br  0.81547864  0.25513287  0.19302997    -0.01600
Br931      Br  0.96712759  0.21974504  0.15408152    -0.01500
Br932      Br  0.90413447  0.17826348  0.12792366    -0.01500
C933        C  0.52457785  0.10151004  0.41469710    -0.02600
C934        C  0.51282748  0.06935826  0.41499058     0.07100
C935        C  0.51459816  0.05068780  0.39049069    -0.02700
C936        C  0.52629301  0.06458598  0.36568593    -0.02700
C937        C  0.53959165  0.09615670  0.36558335     0.07200
C938        C  0.53887418  0.11453824  0.39030014    -0.02900
Br939      Br  0.55866992  0.15698460  0.39118754    -0.01500
Br940      Br  0.02242175  0.12711141  0.44810832    -0.01600
Br941      Br  0.52105804  0.04121697  0.33138613    -0.01500
Br942      Br  0.50075826  0.00594338  0.39038150    -0.01500
C943        C  0.90083083  0.48655985  0.36836464    -0.02600
C944        C  0.89731214  0.45268629  0.36584565     0.07100
C945        C  0.90437674  0.43309304  0.38887329    -0.02700
C946        C  0.91581961  0.44714427  0.41372339    -0.02700
C947        C  0.92034639  0.48085333  0.41578435     0.07200
C948        C  0.91213083  0.50054801  0.39314373    -0.02900
Br949      Br  0.91836680  0.54697734  0.39482940    -0.01500
Br950      Br  0.89249729  0.51459701  0.33753456    -0.01600
Br951      Br  0.92352336  0.42028046  0.44548921    -0.01500
Br952      Br  0.89695568  0.38701742  0.38711464    -0.01500
C953        C  0.62662231  0.33585673  0.03537814    -0.02600
C954        C  0.65951674  0.34422361  0.02792430     0.07100
C955        C  0.67302343  0.37325976  0.03918344    -0.02700
C956        C  0.65615900  0.39011954  0.06031503    -0.02700
C957        C  0.62700775  0.37691472  0.07229027     0.07200
C958        C  0.61062924  0.35191436  0.05743922    -0.02900
Br959      Br  0.56496996  0.34104114  0.06489876    -0.01500
Br960      Br  0.60161782  0.30359839  0.01493113    -0.01600
Br961      Br  0.67192403  0.43301321  0.07012150    -0.01500
Br962      Br  0.71457064  0.39141175  0.02643365    -0.01500
C963        C  0.75472600  0.26216246  0.07024276    -0.06600
C964        C  0.75349762  0.24530317  0.04488080     0.07100
C965        C  0.76594136  0.21389107  0.04292343    -0.02700
C966        C  0.78008240  0.19953219  0.06618220    -0.02700
C967        C  0.78124723  0.21630999  0.09164522     0.07200
C968        C  0.76812399  0.24750509  0.09370005    -0.02900
Br969      Br  0.76644011  0.26941775  0.12899959    -0.01500
Br970      Br  0.73677125  0.30484694  0.07306377    -0.01600
Br971      Br  0.79898388  0.15734287  0.06278677    -0.01500
Br972      Br  0.76447912  0.19085984  0.00809622    -0.01500
C973        C  0.91691597  0.46324251  0.58851810    -0.02600
C974        C  0.88384822  0.45306216  0.58646408     0.07100
C975        C  0.86727634  0.45656849  0.56120191    -0.02700
C976        C  0.88341720  0.47101254  0.53833352    -0.02700
C977        C  0.91669507  0.48046040  0.54021629     0.07200
C978        C  0.93358731  0.47582848  0.56522867    -0.02900
Br979      Br  0.97935003  0.48796897  0.56831532    -0.01500
Br980      Br  0.93889848  0.46259544  0.62383329    -0.01600
Br981      Br  0.86019562  0.47692461  0.50415717    -0.01500
Br982      Br  0.82294432  0.44032902  0.55756816    -0.01500
C983        C  0.80415392  0.49850262  0.66162528    -0.02600
C984        C  0.80074608  0.46473226  0.65988127     0.07100
C985        C  0.77245179  0.44961912  0.67123044    -0.02700
C986        C  0.74960992  0.46769702  0.68688262    -0.02700
C987        C  0.75450395  0.50144944  0.69048446     0.07200
C988        C  0.77987671  0.51663829  0.67488446    -0.02900
Br989      Br  0.77956999  0.06226060  0.66834143    -0.01500
Br990      Br  0.84364768  0.52042492  0.64870648    -0.01600
Br991      Br  0.71197123  0.44522350  0.70206773    -0.01500
Br992      Br  0.76483719  0.40408058  0.66489333    -0.01500
C993        C  0.88473459  0.34873398  0.65521900    -0.02600
C994        C  0.88354092  0.38024782  0.66574119     0.07100
C995        C  0.89731592  0.38735097  0.69160236    -0.02700
C996        C  0.91363068  0.36332276  0.70638273    -0.02700
C997        C  0.91910675  0.33230193  0.69435566     0.07200
C998        C  0.90086383  0.32447547  0.66995228    -0.02900
Br999      Br  0.89099984  0.28059741  0.65861238    -0.01500
Br1000     Br  0.86216391  0.33857194  0.62111382    -0.01600
Br1001     Br  0.92262065  0.37282419  0.74468387    -0.01500
Br1002     Br  0.89443374  0.43061362  0.70660266    -0.01500
C1003       C  0.67921441  0.32681564  0.85853111    -0.02600
C1004       C  0.64914753  0.34291165  0.85836682     0.07100
C1005       C  0.63167242  0.34768344  0.88332681    -0.02700
C1006       C  0.64418045  0.33621043  0.90842119    -0.02700
C1007       C  0.67476990  0.32103849  0.90871043     0.07200
C1008       C  0.69259437  0.31695316  0.88376388    -0.02900
Br1009     Br  0.73528830  0.29771297  0.88391043    -0.01500
Br1010     Br  0.70094563  0.31621658  0.82406389    -0.01600
Br1011     Br  0.62020642  0.34260818  0.94259144    -0.01500
Br1012     Br  0.59104512  0.37070869  0.88315544    -0.01500
C1013       C  0.63451099  0.44628178  0.77127815    -0.02600
C1014       C  0.65433240  0.42206414  0.78266219     0.07100
C1015       C  0.68883420  0.42674175  0.78237842    -0.02700
C1016       C  0.70305865  0.45534654  0.77169796    -0.02700
C1017       C  0.68315913  0.47953476  0.76064080     0.07200
C1018       C  0.64895919  0.47441898  0.75980144    -0.02900
Br1019     Br  0.62139389  0.50622929  0.74355921    -0.01500
Br1020     Br  0.58721431  0.44284607  0.77319031    -0.01600
Br1021     Br  0.75035830  0.96021627  0.77039269    -0.01500
Br1022     Br  0.71760085  0.39375374  0.79532553    -0.01500
C1023       C  0.54637183  0.29492434  0.75203494    -0.02600
C1024       C  0.51444917  0.30572588  0.75821796     0.07100
C1025       C  0.01034202  0.32877785  0.77958144    -0.02700
C1026       C  0.53775803  0.34425038  0.79149793    -0.02700
C1027       C  0.56954310  0.33537912  0.78339583     0.07200
C1028       C  0.57381039  0.30993573  0.76445371    -0.02900
Br1029     Br  0.61756096  0.29615785  0.75532496    -0.01500
Br1030     Br  0.55330838  0.25913041  0.72753646    -0.01600
Br1031     Br  0.53181282  0.37823036  0.81842083    -0.01500
Br1032     Br  0.96737961  0.33687250  0.79463336    -0.01500
C1033       C  0.55349516  0.09651120  0.56852653    -0.02600
C1034       C  0.53345266  0.09868129  0.59246754     0.07100
C1035       C  0.50023349  0.08897638  0.59105668    -0.02700
C1036       C  0.48724308  0.07713316  0.56605221    -0.02700
C1037       C  0.50792352  0.07263807  0.54269138     0.07200
C1038       C  0.54113511  0.08233187  0.54404536    -0.02900
Br1039     Br  0.56914579  0.07808135  0.51182279    -0.01500
Br1040     Br  0.59656201  0.11618933  0.56816108    -0.01600
Br1041     Br  0.94092986  0.06672856  0.56440945    -0.01500
Br1042     Br  0.47240977  0.09093348  0.62365560    -0.01500
C1043       C  0.63424669  0.07836659  0.65960388    -0.02600
C1044       C  0.60829786  0.09466842  0.67330782     0.07100
C1045       C  0.60876170  0.09633314  0.70274590    -0.02700
C1046       C  0.63574411  0.08485297  0.71767517    -0.02700
C1047       C  0.66166574  0.06904838  0.70382108     0.07200
C1048       C  0.66023455  0.06527574  0.67478918    -0.02900
Br1049     Br  0.69487820  0.04364937  0.65502274    -0.01500
Br1050     Br  0.63615170  0.07418254  0.61979801    -0.01600
Br1051     Br  0.63609290  0.08998554  0.75759554    -0.01500
Br1052     Br  0.57131356  0.11134908  0.72373021    -0.01500
C1053       C  0.53041293  0.21073720  0.65864329    -0.02600
C1054       C  0.52416808  0.17869038  0.66670115     0.07100
C1055       C  0.49933865  0.17182494  0.68632634    -0.02700
C1056       C  0.48161588  0.19700047  0.69876103    -0.02700
C1057       C  0.48826076  0.22949719  0.69140494     0.07200
C1058       C  0.51256659  0.23611161  0.67078199    -0.02900
Br1059     Br  0.02380266  0.27989816  0.66026327    -0.01500
Br1060     Br  0.56397812  0.21965179  0.63113587    -0.01600
Br1061     Br  0.44719907  0.18592106  0.72474370    -0.01500
Br1062     Br  0.48876308  0.12748506  0.69535297    -0.01500
C1063       C  0.81427329  0.20873935  0.90558880    -0.02600
C1064       C  0.79752401  0.19801243  0.88175815     0.07100
C1065       C  0.76316162  0.20117856  0.88043702    -0.02700
C1066       C  0.74571203  0.21473004  0.90276136    -0.02700
C1067       C  0.76274340  0.22749041  0.92583749     0.07200
C1068       C  0.79699966  0.22368400  0.92745522    -0.02900
Br1069     Br  0.82022276  0.23752911  0.96022563    -0.01500
Br1070     Br  0.86078371  0.20242726  0.90864874    -0.01600
Br1071     Br  0.69847854  0.21707850  0.90038031    -0.01500
Br1072     Br  0.73987123  0.19022990  0.84683371    -0.01500
C1073       C  0.80639924  0.11159845  0.77883930    -0.02600
C1074       C  0.79880915  0.11697769  0.80723562     0.07100
C1075       C  0.76974224  0.10214993  0.81808707    -0.02700
C1076       C  0.74743731  0.08587071  0.80037674    -0.02700
C1077       C  0.75537589  0.08056206  0.77198638     0.07200
C1078       C  0.78311659  0.09735214  0.76129365    -0.02900
Br1079     Br  0.78503373  0.11043192  0.72317116    -0.01500
Br1080     Br  0.84926317  0.12073619  0.76258404    -0.01600
Br1081     Br  0.70311463  0.07931498  0.81411500    -0.01500
Br1082     Br  0.76068932  0.10082698  0.85754367    -0.01500
C1083       C  0.86272449  0.21675015  0.77542250    -0.02600
C1084       C  0.87347859  0.20938847  0.80224690     0.07100
C1085       C  0.90535579  0.21861965  0.81026764    -0.02700
C1086       C  0.92582717  0.23672972  0.79206055    -0.02700
C1087       C  0.91500880  0.24412756  0.76501673     0.07200
C1088       C  0.88403847  0.23194308  0.75644502    -0.02900
Br1089     Br  0.87147579  0.23219829  0.71790623    -0.01500
Br1090     Br  0.81794925  0.20744425  0.76467415    -0.01600
Br1091     Br  0.96820546  0.25092153  0.80490597    -0.01500
Br1092     Br  0.92130614  0.20511850  0.84576653    -0.01500
C1093       C  0.81540355  0.68365947  0.85797885     0.79400
N1094       N  0.83905854  0.70101451  0.84425096    -0.78900
C1095       C  0.85203484  0.68924070  0.82028455     0.81900
N1096       N  0.84054326  0.66086029  0.81000723    -0.78800
C1097       C  0.81664043  0.64340965  0.82291887     0.82000
N1098       N  0.80428899  0.65529060  0.84702030    -0.80500
C1099       C  0.54627523  0.61277430  0.61855894     0.79400
N1100       N  0.57049802  0.59813924  0.63280275    -0.78900
C1101       C  0.58142906  0.61058968  0.65732042     0.81900
N1102       N  0.56713486  0.63770462  0.66749541    -0.78800
C1103       C  0.54238791  0.65196402  0.65376870     0.82000
N1104       N  0.53213675  0.63947196  0.62931935    -0.80500
C1105       C  0.63622670  0.85511775  0.83215356     0.79400
N1106       N  0.65042601  0.88133546  0.81991744    -0.78900
C1107       C  0.63908417  0.89258406  0.79547061     0.81900
N1108       N  0.61307886  0.87720531  0.78345532    -0.78800
C1109       C  0.59832177  0.85137631  0.79595917     0.82000
N1110       N  0.60998970  0.84034963  0.82027765    -0.80500
C1111       C  0.86672134  0.93975935  0.61111286     0.79400
N1112       N  0.84015215  0.95481698  0.62183744    -0.78900
C1113       C  0.82703175  0.94556565  0.64663542     0.81900
N1114       N  0.84081040  0.92102269  0.66070500    -0.78800
C1115       C  0.86718504  0.90560270  0.64991576     0.82000
N1116       N  0.88009478  0.91514890  0.62523306    -0.80500
C1117       C  0.93971275  0.80679557  0.70963257     0.85700
C1118       C  0.97008952  0.81944068  0.72532453    -0.54500
C1119       C  0.98587138  0.79663995  0.74046813     0.08600
C1120       C  0.97069837  0.76237231  0.73724610     0.19600
C1121       C  0.95457748  0.77985561  0.69145333    -0.55300
C1122       C  0.97046794  0.75643372  0.70561615     0.08700
C1123       C  0.91891791  0.78961420  0.73168165    -0.54800
C1124       C  0.93420029  0.76578471  0.74573929     0.09300
H1125       H  0.97886948  0.84419849  0.72433995     0.13800
H1126       H  0.98386337  0.74350533  0.74863171    -0.00400
H1127       H  0.95467459  0.78026040  0.66902895     0.14100
H1128       H  0.89345554  0.79550019  0.73541726     0.13900
C1129       C  0.73490091  0.55785252  0.75292527     0.85700
C1130       C  0.70863466  0.57556597  0.73677251    -0.54500
C1131       C  0.69004661  0.55635823  0.71977303     0.08600
C1132       C  0.70021319  0.52054538  0.71984285     0.19600
C1133       C  0.71679287  0.52968437  0.76752625    -0.55300
C1134       C  0.69846829  0.51030424  0.75053599     0.08700
C1135       C  0.75510955  0.53990995  0.73064011    -0.54800
C1136       C  0.73738074  0.52072055  0.71281572     0.09300
H1137       H  0.70488232  0.60117840  0.73887520     0.13800
H1138       H  0.68495136  0.00526296  0.70603073    -0.00400
H1139       H  0.72037246  0.52352681  0.78915841     0.14100
H1140       H  0.78176671  0.54130917  0.72964529     0.13900
O1141       O  0.71714751  0.73828732  0.95578858    -0.75200
O1142       O  0.66803175  0.79460406  0.00268510    -0.75200
O1143       O  0.67327604  0.78502618  0.94698877    -0.75300
O1144       O  0.71192704  0.74770237  0.01099612    -0.75300
O1145       O  0.75203965  0.78490980  0.00935677    -0.75300
O1146       O  0.71419314  0.82131782  0.94458923    -0.75300
O1147       O  0.70754240  0.83155523  0.99997419    -0.75200
O1148       O  0.75771320  0.77484001  0.95379572    -0.75300
Ni1149     Ni  0.69112276  0.76516475  0.97923120     1.25400
Ni1150     Ni  0.73433027  0.80448435  0.97696189     1.25400
C1151       C  0.74522904  0.74755972  0.94651900     0.87000
C1152       C  0.67922334  0.82264124  0.00904668     0.86900
C1153       C  0.68789309  0.80870941  0.93484833     0.86900
C1154       C  0.73841454  0.76009856  0.02057377     0.87100
O1155       O  0.92318625  0.52144733  0.45074024    -0.75200
O1156       O  0.96899239  0.56906522  0.50643525    -0.75200
O1157       O  0.97051537  0.56750967  0.44970183    -0.75300
O1158       O  0.92223433  0.52257097  0.50688167    -0.75300
O1159       O  0.96024299  0.98459702  0.50707833    -0.75300
O1160       O  0.50906550  0.53011572  0.45094460    -0.75300
O1161       O  0.50700891  0.53117857  0.50792219    -0.75200
O1162       O  0.96184288  0.98420328  0.45051121    -0.75300
Ni1163     Ni  0.94495405  0.54652569  0.47841696     1.25400
Ni1164     Ni  0.98597127  0.50620863  0.47916744     1.25400
C1165       C  0.93550734  0.99578612  0.44060843     0.87000
C1166       C  0.99446425  0.55721034  0.51740784     0.86900
C1167       C  0.99706181  0.55538638  0.44013972     0.86900
C1168       C  0.93365854  0.99643590  0.51666105     0.87100
C1169       C  0.79641133  0.70136483  0.11598054     0.79400
N1170       N  0.78374505  0.67352020  0.12663537    -0.78900
C1171       C  0.79757909  0.65981582  0.14907713     0.81900
N1172       N  0.82404075  0.67426467  0.16110213    -0.78800
C1173       C  0.83675097  0.70218095  0.15053291     0.82000
N1174       N  0.82282165  0.71569274  0.12806654    -0.80500
C1175       C  0.55486874  0.60920002  0.33977850     0.79400
N1176       N  0.54187855  0.63509568  0.32687593    -0.78900
C1177       C  0.55507203  0.64588841  0.30252044     0.81900
N1178       N  0.58131731  0.63081528  0.29121333    -0.78800
C1179       C  0.59429474  0.60492471  0.30377981     0.82000
N1180       N  0.58088319  0.59399072  0.32796693    -0.80500
C1181       C  0.61556506  0.88696981  0.10088984     0.79400
N1182       N  0.59165160  0.86988265  0.11433308    -0.78900
C1183       C  0.58362734  0.87601044  0.14120235     0.81900
N1184       N  0.60031837  0.89942819  0.15533308    -0.78800
C1185       C  0.62466389  0.91660293  0.14236501     0.82000
N1186       N  0.63211533  0.90998757  0.11545395    -0.80500
C1187       C  0.88653659  0.93796219  0.33920705     0.79400
N1188       N  0.86058189  0.95005178  0.32556917    -0.78900
C1189       C  0.85137440  0.93770648  0.30068248     0.81900
N1190       N  0.86808019  0.91290601  0.28933492    -0.78800
C1191       C  0.89393262  0.90046149  0.30287043     0.82000
N1192       N  0.90330614  0.91318227  0.32762807    -0.80500
C1193       C  0.99170928  0.74871402  0.24098143     0.85700
C1194       C  0.51306454  0.77018029  0.22203822    -0.54500
C1195       C  0.99677292  0.79282954  0.20696886     0.08600
C1196       C  0.95967735  0.79306800  0.21451865     0.19600
C1197       C  0.97394405  0.77233222  0.26010616    -0.55300
C1198       C  0.95823674  0.79613401  0.24665142     0.08700
C1199       C  0.96344409  0.73570754  0.22269511    -0.54800
C1200       C  0.94684468  0.75866917  0.20849358     0.09300
H1201       H  0.53936515  0.76780570  0.22129103     0.13800
H1202       H  0.94520817  0.81071178  0.20332037    -0.00400
H1203       H  0.97328282  0.77048706  0.28248003     0.14100
H1204       H  0.95601132  0.71054123  0.22190304     0.13900
C1205       C  0.75011165  0.50875558  0.24355888     0.85700
C1206       C  0.76381938  0.53491683  0.22387673    -0.54500
C1207       C  0.74113346  0.55182637  0.20973567     0.08600
C1208       C  0.70578635  0.53992228  0.21605242     0.19600
C1209       C  0.72539249  0.52566543  0.26213633    -0.55300
C1210       C  0.70202868  0.54171307  0.24823426     0.08700
C1211       C  0.72917737  0.98755076  0.22394226    -0.54800
C1212       C  0.70596326  0.50341755  0.20889609     0.09300
H1213       H  0.78965375  0.53889418  0.22001472     0.13800
H1214       H  0.68794751  0.55378023  0.20447598    -0.00400
H1215       H  0.72585465  0.52444579  0.28466732     0.14100
H1216       H  0.73282083  0.96183473  0.22197343     0.13900
C1217       C  0.83320808  0.98394128  0.27321776    -0.02600
C1218       C  0.82579776  0.95387528  0.28494170     0.07100
C1219       C  0.79330575  0.94218205  0.28521266    -0.02700
C1220       C  0.76830394  0.96039736  0.27310988    -0.02700
C1221       C  0.77592630  0.99063738  0.26040351     0.07200
C1222       C  0.80802763  0.00372722  0.26437603    -0.02900
Br1223     Br  0.81669995  0.54964191  0.26777333    -0.01500
Br1224     Br  0.87824391  0.99770938  0.26798384    -0.01600
Br1225     Br  0.72352387  0.94519006  0.27770397    -0.01500
Br1226     Br  0.78342797  0.90098793  0.30201200    -0.01500
C1227       C  0.94410457  0.87720401  0.28100487    -0.02600
C1228       C  0.91156258  0.87318699  0.29056855     0.07100
C1229       C  0.89575461  0.84284683  0.28844509    -0.02700
C1230       C  0.91180224  0.81708272  0.27545856    -0.02700
C1231       C  0.94247514  0.82240576  0.26243189     0.07200
C1232       C  0.95969478  0.85166061  0.26718440    -0.02900
Br1233     Br  0.00569312  0.85547441  0.25774351    -0.01500
Br1234     Br  0.96712455  0.91774218  0.28644002    -0.01600
Br1235     Br  0.89313549  0.77401667  0.27783270    -0.01500
Br1236     Br  0.85250631  0.83631613  0.30414962    -0.01500
C1237       C  0.63132307  0.96867719  0.16888022    -0.02600
C1238       C  0.64508643  0.94049609  0.15778382     0.07100
C1239       C  0.67914003  0.93640483  0.15930188    -0.02700
C1240       C  0.69904662  0.95975156  0.17244243    -0.02700
C1241       C  0.68502689  0.98567765  0.18755595     0.07200
C1242       C  0.65099131  0.99145981  0.18344791    -0.02900
Br1243     Br  0.63002752  0.53085090  0.19462382    -0.01500
Br1244     Br  0.58536355  0.97644165  0.16307252    -0.01600
Br1245     Br  0.74576872  0.95812298  0.16575732    -0.01500
Br1246     Br  0.69874009  0.89759773  0.14485417    -0.01500
C1247       C  0.56474201  0.82155513  0.15721296    -0.02600
C1248       C  0.55929639  0.85481798  0.15556461     0.07100
C1249       C  0.52999986  0.86727914  0.16633848    -0.02700
C1250       C  0.50784144  0.84738467  0.18162036    -0.02700
C1251       C  0.51488547  0.81410118  0.18595009     0.07200
C1252       C  0.54201923  0.80119093  0.17097576    -0.02900
Br1253     Br  0.54725084  0.75526512  0.16598661    -0.01500
Br1254     Br  0.60433620  0.80370837  0.14142458    -0.01600
Br1255     Br  0.96840745  0.86767627  0.19482286    -0.01500
Br1256     Br  0.51974490  0.91166120  0.15870738    -0.01500
C1257       C  0.52823976  0.66645600  0.26015551    -0.02600
C1258       C  0.53985347  0.67235845  0.28705725     0.07100
C1259       C  0.54085601  0.70416776  0.29727701    -0.02700
C1260       C  0.52804920  0.72954915  0.28148733    -0.02700
C1261       C  0.51179406  0.72286449  0.25603947     0.07200
C1262       C  0.51649218  0.69188243  0.24411818    -0.02900
Br1263     Br  0.51497570  0.68500627  0.20464608    -0.01500
Br1264     Br  0.52788429  0.62314405  0.24509227    -0.01600
Br1265     Br  0.03912626  0.77325609  0.29260396    -0.01500
Br1266     Br  0.56181480  0.71321556  0.33216167    -0.01500
C1267       C  0.61747364  0.55805165  0.27771511    -0.02600
C1268       C  0.62222847  0.58829891  0.29059268     0.07100
C1269       C  0.65385783  0.60251096  0.29094430    -0.02700
C1270       C  0.68026552  0.58699151  0.27770119    -0.02700
C1271       C  0.67490848  0.55753617  0.26353801     0.07200
C1272       C  0.64420984  0.54180258  0.26600283    -0.02900
Br1273     Br  0.64001098  0.49632968  0.25780751    -0.01500
Br1274     Br  0.57412508  0.53984329  0.27379050    -0.01600
Br1275     Br  0.72412770  0.60478123  0.28084056    -0.01500
Br1276     Br  0.66091591  0.64323830  0.30956060    -0.01500
C1277       C  0.75316436  0.63603294  0.17857807    -0.02600
C1278       C  0.78144113  0.63160522  0.16226363     0.07100
C1279       C  0.79365214  0.60048931  0.15829436    -0.02700
C1280       C  0.77849674  0.57393952  0.17170997    -0.02700
C1281       C  0.75149409  0.57845744  0.19016472     0.07200
C1282       C  0.73784602  0.60966191  0.19212305    -0.02900
Br1283     Br  0.69848897  0.61793019  0.21306492    -0.01500
Br1284     Br  0.73658553  0.67910590  0.18350196    -0.01600
Br1285     Br  0.79416537  0.53132281  0.16310493    -0.01500
Br1286     Br  0.83144451  0.59446757  0.13454538    -0.01500
C1287       C  0.85968452  0.74398329  0.18266976    -0.02600
C1288       C  0.86488427  0.71854856  0.16385271     0.07100
C1289       C  0.89700055  0.71073118  0.15598697    -0.02700
C1290       C  0.92381067  0.72650476  0.16861146    -0.02700
C1291       C  0.91886460  0.74968888  0.18972279     0.07200
C1292       C  0.88658774  0.76069556  0.19442346    -0.02900
Br1293     Br  0.87834485  0.80081244  0.21304437    -0.01500
Br1294     Br  0.81547876  0.75513260  0.19302963    -0.01600
Br1295     Br  0.96712777  0.71974463  0.15408146    -0.01500
Br1296     Br  0.90413468  0.67826314  0.12792351    -0.01500
C1297       C  0.52457828  0.60151004  0.41469735    -0.02600
C1298       C  0.51282814  0.56935819  0.41499083     0.07100
C1299       C  0.51459914  0.55068765  0.39049100    -0.02700
C1300       C  0.52629397  0.56458585  0.36568625    -0.02700
C1301       C  0.53959226  0.59615671  0.36558363     0.07200
C1302       C  0.53887454  0.61453831  0.39030039    -0.02900
Br1303     Br  0.55866970  0.65698493  0.39118774    -0.01500
Br1304     Br  0.02242147  0.62711123  0.44810816    -0.01600
Br1305     Br  0.52105929  0.54121666  0.33138651    -0.01500
Br1306     Br  0.50075971  0.50594308  0.39038191    -0.01500
C1307       C  0.90083277  0.98656009  0.36836395    -0.02600
C1308       C  0.89731346  0.95268659  0.36584508     0.07100
C1309       C  0.90437751  0.93309333  0.38887284    -0.02700
C1310       C  0.91582028  0.94714451  0.41372301    -0.02700
C1311       C  0.92034732  0.98085354  0.41578395     0.07200
C1312       C  0.91213233  0.00054824  0.39314319    -0.02900
Br1313     Br  0.91836832  0.04697755  0.39482897    -0.01500
Br1314     Br  0.89250096  0.01459708  0.33753341    -0.01600
Br1315     Br  0.92352353  0.92028072  0.44548894    -0.01500
Br1316     Br  0.89695592  0.88701778  0.38711426    -0.01500
C1317       C  0.62662243  0.83585634  0.03537839    -0.02600
C1318       C  0.65951679  0.84422336  0.02792442     0.07100
C1319       C  0.67302337  0.87325961  0.03918347    -0.02700
C1320       C  0.65615894  0.89011936  0.06031510    -0.02700
C1321       C  0.62700776  0.87691447  0.07229043     0.07200
C1322       C  0.61062934  0.85191397  0.05743947    -0.02900
Br1323     Br  0.56497014  0.84104049  0.06489913    -0.01500
Br1324     Br  0.60161803  0.80359778  0.01493155    -0.01600
Br1325     Br  0.67192394  0.93301306  0.07012152    -0.01500
Br1326     Br  0.71457038  0.89141182  0.02643343    -0.01500
C1327       C  0.75472591  0.76216212  0.07024268    -0.06600
C1328       C  0.75349757  0.74530286  0.04488071     0.07100
C1329       C  0.76594136  0.71389079  0.04292330    -0.02700
C1330       C  0.78008238  0.69953188  0.06618206    -0.02700
C1331       C  0.78124724  0.71630968  0.09164510     0.07200
C1332       C  0.76812400  0.74750478  0.09369994    -0.02900
Br1333     Br  0.76644032  0.76941754  0.12899943    -0.01500
Br1334     Br  0.73677100  0.80484653  0.07306374    -0.01600
Br1335     Br  0.79898384  0.65734256  0.06278660    -0.01500
Br1336     Br  0.76447932  0.69085969  0.00809601    -0.01500
C1337       C  0.91691598  0.96324246  0.58851789    -0.02600
C1338       C  0.88384814  0.95306238  0.58646394     0.07100
C1339       C  0.86727622  0.95656893  0.56120182    -0.02700
C1340       C  0.88341714  0.97101288  0.53833341    -0.02700
C1341       C  0.91669515  0.98046031  0.54021607     0.07200
C1342       C  0.93358740  0.97582820  0.56522842    -0.02900
Br1343     Br  0.97935027  0.98796815  0.56831497    -0.01500
Br1344     Br  0.93889852  0.96259532  0.62383308    -0.01600
Br1345     Br  0.86019542  0.97692541  0.50415718    -0.01500
Br1346     Br  0.82294404  0.94032985  0.55756815    -0.01500
C1347       C  0.80415418  0.99850257  0.66162554    -0.02600
C1348       C  0.80074625  0.96473224  0.65988138     0.07100
C1349       C  0.77245193  0.94961910  0.67123048    -0.02700
C1350       C  0.74961005  0.96769698  0.68688266    -0.02700
C1351       C  0.75450408  0.00144939  0.69048456     0.07200
C1352       C  0.77987695  0.01663825  0.67488468    -0.02900
Br1353     Br  0.77956970  0.56226066  0.66834125    -0.01500
Br1354     Br  0.84364809  0.02042481  0.64870695    -0.01600
Br1355     Br  0.71197136  0.94522341  0.70206772    -0.01500
Br1356     Br  0.76483733  0.90408056  0.66489331    -0.01500
C1357       C  0.88473479  0.84873393  0.65521874    -0.02600
C1358       C  0.88354108  0.88024779  0.66574088     0.07100
C1359       C  0.89731612  0.88735101  0.69160202    -0.02700
C1360       C  0.91363091  0.86332284  0.70638242    -0.02700
C1361       C  0.91910703  0.83230200  0.69435539     0.07200
C1362       C  0.90086413  0.82447547  0.66995200    -0.02900
Br1363     Br  0.89100046  0.78059737  0.65861200    -0.01500
Br1364     Br  0.86216409  0.83857180  0.62111358    -0.01600
Br1365     Br  0.92262082  0.87282434  0.74468356    -0.01500
Br1366     Br  0.89443398  0.93061369  0.70660225    -0.01500
C1367       C  0.67921461  0.82681565  0.85853111    -0.02600
C1368       C  0.64914767  0.84291155  0.85836681     0.07100
C1369       C  0.63167258  0.84768337  0.88332681    -0.02700
C1370       C  0.64418073  0.83621055  0.90842120    -0.02700
C1371       C  0.67477019  0.82103864  0.90871044     0.07200
C1372       C  0.69259462  0.81695324  0.88376387    -0.02900
Br1373     Br  0.73528854  0.79771304  0.88391042    -0.01500
Br1374     Br  0.70094585  0.81621661  0.82406389    -0.01600
Br1375     Br  0.62020684  0.84260850  0.94259150    -0.01500
Br1376     Br  0.59104512  0.87070835  0.88315542    -0.01500
C1377       C  0.63451104  0.94628150  0.77127819    -0.02600
C1378       C  0.65433249  0.92206377  0.78266204     0.07100
C1379       C  0.68883429  0.92674135  0.78237815    -0.02700
C1380       C  0.70305872  0.95534621  0.77169781    -0.02700
C1381       C  0.68315917  0.97953451  0.76064082     0.07200
C1382       C  0.64895922  0.97441877  0.75980157    -0.02900
Br1383     Br  0.62139388  0.00622924  0.74355962    -0.01500
Br1384     Br  0.58721437  0.94284580  0.77319049    -0.01600
Br1385     Br  0.75035823  0.46021654  0.77039286    -0.01500
Br1386     Br  0.71760096  0.89375318  0.79532491    -0.01500
C1387       C  0.54637177  0.79492418  0.75203493    -0.02600
C1388       C  0.51444912  0.80572570  0.75821801     0.07100
C1389       C  0.01034204  0.82877806  0.77958144    -0.02700
C1390       C  0.53775802  0.84424995  0.79149817    -0.02700
C1391       C  0.56954310  0.83537881  0.78339594     0.07200
C1392       C  0.57381035  0.80993553  0.76445369    -0.02900
Br1393     Br  0.61756091  0.79615775  0.75532478    -0.01500
Br1394     Br  0.55330826  0.75913028  0.72753640    -0.01600
Br1395     Br  0.53181285  0.87822965  0.81842134    -0.01500
Br1396     Br  0.96737954  0.83687264  0.79463319    -0.01500
C1397       C  0.55349503  0.59651132  0.56852659    -0.02600
C1398       C  0.53345253  0.59868129  0.59246760     0.07100
C1399       C  0.50023338  0.58897631  0.59105673    -0.02700
C1400       C  0.48724303  0.57713300  0.56605226    -0.02700
C1401       C  0.50792348  0.57263799  0.54269144     0.07200
C1402       C  0.54113503  0.58233194  0.54404542    -0.02900
Br1403     Br  0.56914571  0.57808165  0.51182282    -0.01500
Br1404     Br  0.59656171  0.61618983  0.56816110    -0.01600
Br1405     Br  0.94092973  0.56672897  0.56440939    -0.01500
Br1406     Br  0.47240956  0.59093355  0.62365558    -0.01500
C1407       C  0.63424664  0.57836685  0.65960385    -0.02600
C1408       C  0.60829782  0.59466867  0.67330784     0.07100
C1409       C  0.60876172  0.59633339  0.70274592    -0.02700
C1410       C  0.63574413  0.58485313  0.71767515    -0.02700
C1411       C  0.66166575  0.56904857  0.70382101     0.07200
C1412       C  0.66023450  0.56527595  0.67478911    -0.02900
Br1413     Br  0.69487802  0.54364943  0.65502265    -0.01500
Br1414     Br  0.63615164  0.57418291  0.61979797    -0.01600
Br1415     Br  0.63609293  0.58998545  0.75759554    -0.01500
Br1416     Br  0.57131372  0.61134956  0.72373029    -0.01500
C1417       C  0.53041251  0.71073718  0.65864321    -0.02600
C1418       C  0.52416775  0.67869037  0.66670116     0.07100
C1419       C  0.49933833  0.67182492  0.68632635    -0.02700
C1420       C  0.48161553  0.69700046  0.69876101    -0.02700
C1421       C  0.48826040  0.72949718  0.69140490     0.07200
C1422       C  0.51256619  0.73611159  0.67078191    -0.02900
Br1423     Br  0.02380316  0.77989842  0.66026307    -0.01500
Br1424     Br  0.56397758  0.71965174  0.63113567    -0.01600
Br1425     Br  0.44719866  0.68592107  0.72474363    -0.01500
Br1426     Br  0.48876282  0.62748504  0.69535300    -0.01500
C1427       C  0.81427351  0.70873953  0.90558861    -0.02600
C1428       C  0.79752424  0.69801254  0.88175799     0.07100
C1429       C  0.76316183  0.70117853  0.88043688    -0.02700
C1430       C  0.74571221  0.71472995  0.90276123    -0.02700
C1431       C  0.76274357  0.72749042  0.92583734     0.07200
C1432       C  0.79699985  0.72368412  0.92745504    -0.02900
Br1433     Br  0.82022295  0.73752923  0.96022545    -0.01500
Br1434     Br  0.86078396  0.70242760  0.90864851    -0.01600
Br1435     Br  0.69847870  0.71707818  0.90038020    -0.01500
Br1436     Br  0.73987145  0.69022981  0.84683357    -0.01500
C1437       C  0.80639931  0.61159863  0.77883912    -0.02600
C1438       C  0.79880921  0.61697792  0.80723544     0.07100
C1439       C  0.76974228  0.60215022  0.81808689    -0.02700
C1440       C  0.74743734  0.58587097  0.80037657    -0.02700
C1441       C  0.75537596  0.58056223  0.77198624     0.07200
C1442       C  0.78311668  0.59735226  0.76129349    -0.02900
Br1443     Br  0.78503388  0.61043192  0.72317098    -0.01500
Br1444     Br  0.84926321  0.62073647  0.76258383    -0.01600
Br1445     Br  0.70311463  0.57931533  0.81411481    -0.01500
Br1446     Br  0.76068930  0.60082733  0.85754350    -0.01500
C1447       C  0.86272475  0.71675026  0.77542222    -0.02600
C1448       C  0.87347879  0.70938864  0.80224667     0.07100
C1449       C  0.90535599  0.71861985  0.81026742    -0.02700
C1450       C  0.92582739  0.73672989  0.79206033    -0.02700
C1451       C  0.91500908  0.74412765  0.76501647     0.07200
C1452       C  0.88403878  0.73194314  0.75644475    -0.02900
Br1453     Br  0.87147622  0.73219819  0.71790592    -0.01500
Br1454     Br  0.81794953  0.70744435  0.76467380    -0.01600
Br1455     Br  0.96820563  0.75092180  0.80490578    -0.01500
Br1456     Br  0.92130631  0.70511880  0.84576634    -0.01500
loop_ 
_geom_bond_atom_site_label_1 
_geom_bond_atom_site_label_2 
_geom_bond_distance 
_geom_bond_site_symmetry_2 
_ccdc_geom_bond_type 
C1            N2   1.362       .  A
C1            N6   1.361       .  A
C1          C336   1.482       .  S
N2            C3   1.359       .  A
C3            N4   1.354       .  A
C3          C356   1.479       .  S
N4            C5   1.353       .  A
C5            N6   1.357       .  A
C5          C346   1.510       .  S
C7            N8   1.363       .  A
C7           N12   1.357       .  A
C7          C306   1.483       .  S
N8            C9   1.365       .  A
C9           N10   1.363       .  A
C9          C316   1.511       .  S
N10          C11   1.360       .  A
C11          N12   1.354       .  A
C11         C326   1.478       .  S
C13          N14   1.358       .  A
C13          N18   1.356       .  A
C13         C276   1.471       .  S
N14          C15   1.360       .  A
C15          N16   1.362       .  A
C15         C286   1.496       .  S
N16          C17   1.360       .  A
C17          N18   1.356       .  A
C17         C299   1.474       .  S
C19          N20   1.358       .  A
C19          N24   1.356       .  A
C19         C246   1.477       .  S
N20          C21   1.360       .  A
C21          N22   1.360       .  A
C21         C256   1.484       .  S
N22          C23   1.360       .  A
C23          N24   1.355       .  A
C23         C266   1.476       .  S
C25          C26   1.543       .  S
C25          C31   1.525       .  S
C25          C29   1.546       .  S
C25         C269   1.557       .  S
C26          H33   1.083       .  S
C26          C27   1.372       .  D
C27          C28   1.549       .  S
C27        C1024   1.497       .  S
C28          C32   1.550       .  S
C28          C30   1.545       .  S
C28          H34   1.108       .  S
C29          H35   1.082       .  S
C29          C30   1.367       .  D
C30        C1057   1.502       .  S
C31          H36   1.085       .  S
C31          C32   1.365       .  D
C32         C359   1.501       .  S
C37          C38   1.532       .  S
C37          C43   1.545       .  S
C37          C41   1.541       .  S
C37         C349   1.554       .  S
C38          H45   1.080       .  S
C38          C39   1.367       .  D
C39          C40   1.550       .  S
C39         C319   1.502       .  S
C40          C44   1.551       .  S
C40          C42   1.543       .  S
C40         H410   1.107       .  S
C41          H47   1.088       .  S
C41          C42   1.365       .  D
C42         C653   1.493   1_545  S
C43          H48   1.089       .  S
C43          C44   1.373       .  D
C44         C623   1.512       .  S
H46         C404   1.107       .  S
O49         Ni57   1.912       .  S
O49          C59   1.280       .  A
O50         Ni57   1.915   1_554  S
O50          C60   1.279       .  A
O51         Ni57   1.920       .  S
O51          C61   1.281       .  A
O52         Ni57   1.912   1_554  S
O52          C62   1.279       .  A
O53         Ni58   1.919   1_554  S
O53          C62   1.281       .  A
O54         Ni58   1.914       .  S
O54          C61   1.279       .  A
O55         Ni58   1.922       .  S
O55          C60   1.281   1_556  A
O56         Ni58   1.918       .  S
O56          C59   1.282       .  A
Ni57        Ni58   2.383       .  S
C59         C339   1.483       .  S
C60         C226   1.510       .  S
C61         C279   1.473       .  S
C62         C236   1.472       .  S
O63         Ni71   1.907       .  S
O63         C437   1.278   1_545  A
O64         Ni71   1.911       .  S
O64          C74   1.279       .  A
O65         Ni71   1.927       .  S
O65          C75   1.283       .  A
O66         Ni71   1.920       .  S
O66         C440   1.282   1_545  A
O67        Ni436   1.915       .  S
O67          C76   1.280       .  A
O68        Ni800   1.918   1_455  S
O68         C803   1.281   1_455  A
O69        Ni800   1.928   1_455  S
O69         C802   1.284   1_455  A
O70        Ni436   1.924       .  S
O70          C73   1.283       .  A
Ni71        Ni72   2.388       .  S
Ni72        O431   1.915   1_545  S
Ni72        O796   1.918       .  S
Ni72        O797   1.928       .  S
Ni72        O434   1.924   1_545  S
C73         C219   1.482       .  S
C73         O427   1.278       .  A
C74        C1037   1.482       .  S
C74         O797   1.284       .  A
C75         C934   1.483       .  S
C75         O796   1.281       .  A
C76         C249   1.478       .  S
C76         O430   1.282       .  A
C77          N78   1.358       .  A
C77          N82   1.358       .  A
C77         C239   1.477       .  S
N78          C79   1.358       .  A
C79          N80   1.360       .  A
C79         C186   1.476       .  S
N80          C81   1.360       .  A
C81          N82   1.358       .  A
C81         C196   1.476       .  S
C83          N84   1.363       .  A
C83          N88   1.363       .  A
C83         C209   1.487       .  S
N84          C85   1.362       .  A
C85          N86   1.358       .  A
C85         C166   1.480       .  S
N86          C87   1.355       .  A
C87          N88   1.360       .  A
C87         C176   1.480       .  S
C89          N90   1.357       .  A
C89          N94   1.358       .  A
C89         C229   1.512       .  S
N90          C91   1.358       .  A
C91          N92   1.362       .  A
C91         C156   1.483       .  S
N92          C93   1.361       .  A
C93          N94   1.359       .  A
C93         C146   1.486       .  S
C95          N96   1.358       .  A
C95         N100   1.360       .  A
C95         C216   1.488       .  S
N96          C97   1.358       .  A
C97          N98   1.355       .  A
C97         C126   1.471       .  S
N98          C99   1.358       .  A
C99         N100   1.360       .  A
C99         C136   1.471       .  S
C101        C107   1.548       .  S
C101        C105   1.530       .  S
C101        C830   1.534       .  S
C101        C897   1.550       .  S
C102        C829   1.534   1_455  S
C102        H109   1.080       .  S
C102        C831   1.376   1_455  D
C103        C104   1.554       .  S
C103        C830   1.376       .  D
C103        C887   1.524       .  S
C104        C108   1.539       .  S
C104        C106   1.556       .  S
C104        H110   1.097       .  S
C105        H111   1.083       .  S
C105        C106   1.358       .  D
C106        C139   1.479       .  S
C107        H112   1.083       .  S
C107        C108   1.369       .  D
C108        C199   1.506       .  S
C113        C114   1.539       .  S
C113        C117   1.521       .  S
C113        C483   1.544   1_545  S
C113        C493   1.545   1_545  S
C114        H121   1.079       .  S
C114        C115   1.363       .  D
C115        C116   1.545       .  S
C115        C189   1.509       .  S
C116        C120   1.552       .  S
C116        C118   1.561       .  S
C116        H122   1.095       .  S
C117        H123   1.089       .  S
C117        C118   1.358       .  D
C118        C179   1.485       .  S
C119        C477   1.544       .  S
C119        H124   1.083       .  S
C119        C484   1.378       .  D
C120        C483   1.378   1_545  D
C120        C513   1.524   1_545  S
C125        C126   1.399       .  A
C125        C130   1.398       .  A
C125       Br132   1.930       .  S
C126        C127   1.404       .  A
C127        C128   1.413       .  A
C127       Br134   1.929       .  S
C128        C129   1.427       .  A
C128       Br133   1.934       .  S
C129        C477   1.545       .  S
C129        C130   1.424       .  A
C130       Br495   1.938       .  S
Br131       C494   1.938       .  S
C135        C136   1.409       .  A
C135        C140   1.407       .  A
C135       Br142   1.930       .  S
C136        C137   1.408       .  A
C137        C138   1.405       .  A
C137       Br144   1.929       .  S
C138        C139   1.409       .  A
C138       Br143   1.933       .  S
C139        C140   1.411       .  A
C140       Br141   1.931       .  S
C145        C146   1.407       .  A
C145        C150   1.418       .  A
C145       Br152   1.933       .  S
C146        C147   1.406       .  A
C147        C148   1.407       .  A
C147       Br154   1.934       .  S
C148        C149   1.422       .  A
C148       Br153   1.933       .  S
C149        C484   1.524       .  S
C149        C150   1.430       .  A
C150       Br515   1.930       .  S
Br151       C514   1.930   1_545  S
C155        C156   1.404       .  A
C155        C160   1.407       .  A
C155       Br162   1.937       .  S
C156        C157   1.405       .  A
C157        C158   1.417       .  A
C157       Br164   1.933       .  S
C158        C159   1.432       .  A
C158       Br891   1.930   1_455  S
C159        C831   1.524   1_455  S
C159        C160   1.427       .  A
C160       Br161   1.935       .  S
Br163       C886   1.930       .  S
C165        C166   1.406       .  A
C165        C170   1.405       .  A
C165       Br172   1.935       .  S
C166        C167   1.407       .  A
C167        C168   1.414       .  A
C167       Br174   1.929       .  S
C168        C169   1.426       .  A
C168       Br901   1.936       .  S
C169        C829   1.550   1_455  S
C169        C170   1.421       .  A
C170       Br171   1.926       .  S
Br173       C896   1.936       .  S
C175        C176   1.409       .  A
C175        C180   1.405       .  A
C175       Br182   1.923       .  S
C176        C177   1.410       .  A
C177        C178   1.411       .  A
C177       Br184   1.929       .  S
C178        C179   1.412       .  A
C178       Br183   1.932       .  S
C179        C180   1.407       .  A
C180       Br181   1.931   1_545  S
C185        C186   1.404       .  A
C185        C190   1.410       .  A
C185       Br192   1.935       .  S
C186        C187   1.404       .  A
C187        C188   1.410       .  A
C187       Br194   1.931       .  S
C188        C189   1.424       .  A
C188       Br193   1.933       .  S
C189        C190   1.421       .  A
C190       Br191   1.924       .  S
C195        C196   1.406       .  A
C195        C200   1.411       .  A
C195       Br202   1.931       .  S
C196        C197   1.404       .  A
C197        C198   1.408       .  A
C197       Br204   1.929       .  S
C198        C199   1.413       .  A
C198       Br203   1.920       .  S
C199        C200   1.418       .  A
C200       Br201   1.921       .  S
C205        C206   1.410       .  A
C205        C210   1.414       .  A
C205       Br940   1.929       .  S
C206        C803   1.483   1_455  S
C206        C207   1.412       .  A
C207        C208   1.406       .  A
C207       Br214   1.931       .  S
C208        C209   1.409       .  A
C208       Br213   1.926       .  S
C209        C210   1.413       .  A
C210       Br211   1.925       .  S
Br212       C933   1.929       .  S
C215        C216   1.415       .  A
C215        C220   1.406       .  A
C215       Br222   1.930       .  S
C216        C217   1.415       .  A
C217        C218   1.411       .  A
C217       Br224   1.932       .  S
C218        C219   1.411       .  A
C218       Br223   1.931       .  S
C219        C220   1.414       .  A
C220       Br221   1.940       .  S
C225        C226   1.424       .  A
C225        C230   1.413       .  A
C225       Br232   1.941       .  S
C226        C227   1.424       .  A
C227        C228   1.414       .  A
C227       Br234   1.939       .  S
C228        C229   1.420       .  A
C228       Br233   1.940       .  S
C229        C230   1.420       .  A
C230       Br231   1.940       .  S
C235        C236   1.408       .  A
C235        C240   1.408       .  A
C235       Br242   1.932       .  S
C236        C237   1.409       .  A
C237        C238   1.407       .  A
C237       Br244   1.930       .  S
C238        C239   1.410       .  A
C238       Br243   1.931       .  S
C239        C240   1.412       .  A
C240       Br241   1.928       .  S
C245        C246   1.412       .  A
C245        C250   1.405       .  A
C245       Br252   1.935       .  S
C246        C247   1.410       .  A
C247        C248   1.410       .  A
C247       Br254   1.929       .  S
C248        C249   1.411       .  A
C248       Br253   1.930       .  S
C249        C250   1.412       .  A
C250       Br251   1.933       .  S
C255        C256   1.408       .  A
C255        C260   1.402       .  A
C255       Br262   1.936       .  S
C256        C257   1.411       .  A
C257        C258   1.417       .  A
C257       Br264   1.933       .  S
C258        C259   1.421       .  A
C258       Br263   1.923       .  S
C259        C408   1.512       .  S
C259        C260   1.415       .  A
C260       Br625   1.921       .  S
Br261       C624   1.921       .  S
C265        C266   1.402       .  A
C265        C270   1.411       .  A
C265       Br272   1.936       .  S
C266        C267   1.402       .  A
C267        C268   1.409       .  A
C267       Br274   1.937       .  S
C268        C269   1.430       .  A
C268       Br273   1.926       .  S
C269        C270   1.433       .  A
C270       Br271   1.935       .  S
C275        C276   1.408       .  A
C275        C280   1.405       .  A
C275       Br282   1.929       .  S
C276        C277   1.408       .  A
C277        C278   1.408       .  A
C277       Br284   1.929       .  S
C278        C279   1.408       .  A
C278       Br283   1.928       .  S
C279        C280   1.411       .  A
C280       Br281   1.930       .  S
C285        C286   1.417       .  A
C285        C290   1.411       .  A
C285       Br292   1.935       .  S
C286        C287   1.418       .  A
C287        C288   1.409       .  A
C287       Br294   1.929       .  S
C288        C289   1.412       .  A
C288       Br657   1.938       .  S
C289        C406   1.493       .  S
C289        C290   1.409       .  A
C290       Br291   1.924       .  S
Br293       C652   1.938       .  S
C295        C296   1.414       .  A
C295        C300   1.410       .  A
C295       Br302   1.917       .  S
C296        C755   1.497   1_455  S
C296       C1025   1.414       .  A
C297       C1024   1.414       .  A
C297       C1026   1.407       .  A
C297       Br304   1.925       .  S
C298        C299   1.406       .  A
C298       C1025   1.407       .  A
C298       Br303   1.929       .  S
C299        C300   1.405       .  A
C300       Br301   1.931       .  S
C305        C306   1.412       .  A
C305        C310   1.412       .  A
C305       Br312   1.925       .  S
C306        C307   1.410       .  A
C307        C308   1.406   1_455  A
C307       Br314   1.933   1_455  S
C308        C309   1.415   1_655  A
C308      Br1041   1.934       .  S
C309        C802   1.482   1_455  S
C309        C310   1.409       .  A
C310       Br311   1.929       .  S
Br313      C1036   1.934       .  S
C315        C316   1.422       .  A
C315        C320   1.414       .  A
C315       Br322   1.929       .  S
C316        C317   1.422       .  A
C317        C318   1.413       .  A
C317       Br324   1.935       .  S
C318        C319   1.415       .  A
C318       Br323   1.937       .  S
C319        C320   1.411       .  A
C320       Br321   1.929       .  S
C325        C326   1.405       .  A
C325        C330   1.412       .  A
C325       Br332   1.930       .  S
C326        C327   1.406   1_455  A
C327        C328   1.409       .  A
C327       Br334   1.933       .  S
C328        C329   1.417       .  A
C328       Br333   1.924       .  S
C329        C758   1.502       .  S
C329        C330   1.422   1_655  A
C330      Br1059   1.934       .  S
Br331      C1058   1.934       .  S
C335        C336   1.411       .  A
C335        C340   1.410       .  A
C335       Br342   1.929       .  S
C336        C337   1.413       .  A
C337        C338   1.406       .  A
C337       Br344   1.937       .  S
C338        C339   1.415       .  A
C338       Br343   1.937       .  S
C339        C340   1.413       .  A
C340       Br341   1.933       .  S
C345        C346   1.419       .  A
C345        C350   1.401       .  A
C345       Br352   1.942       .  S
C346        C347   1.423       .  A
C347        C348   1.416       .  A
C347       Br354   1.937       .  S
C348        C349   1.422       .  A
C348       Br353   1.935       .  S
C349        C350   1.413       .  A
C350       Br351   1.921       .  S
C355        C356   1.408       .  A
C355        C360   1.401       .  A
C355       Br362   1.937       .  S
C356        C357   1.408       .  A
C357        C358   1.415       .  A
C357       Br364   1.928       .  S
C358        C359   1.419       .  A
C358       Br363   1.926       .  S
C359        C360   1.418       .  A
C360       Br361   1.935       .  S
C365        N366   1.362       .  A
C365        N370   1.361       .  A
C365        C700   1.482       .  S
N366        C367   1.359       .  A
C367        N368   1.354       .  A
C367        C720   1.479       .  S
N368        C369   1.353       .  A
C369        N370   1.357       .  A
C369        C710   1.510       .  S
C371        N372   1.363       .  A
C371        N376   1.357       .  A
C371        C670   1.483       .  S
N372        C373   1.365       .  A
C373        N374   1.363       .  A
C373        C680   1.511       .  S
N374        C375   1.360       .  A
C375        N376   1.354       .  A
C375        C690   1.478       .  S
C377        N378   1.358       .  A
C377        N382   1.356       .  A
C377        C640   1.471       .  S
N378        C379   1.360       .  A
C379        N380   1.362       .  A
C379        C650   1.496       .  S
N380        C381   1.360       .  A
C381        N382   1.356       .  A
C381        C663   1.474       .  S
C383        N384   1.358       .  A
C383        N388   1.356       .  A
C383        C610   1.477       .  S
N384        C385   1.360       .  A
C385        N386   1.360       .  A
C385        C620   1.484       .  S
N386        C387   1.360       .  A
C387        N388   1.355       .  A
C387        C630   1.476       .  S
C389        C390   1.543       .  S
C389        C395   1.525       .  S
C389        C393   1.546       .  S
C389        C633   1.557       .  S
C390        H397   1.083       .  S
C390        C391   1.372       .  D
C391        C392   1.549       .  S
C391       C1388   1.497       .  S
C392        C396   1.550       .  S
C392        C394   1.545       .  S
C392        H398   1.108       .  S
C393        H399   1.082       .  S
C393        C394   1.367       .  D
C394       C1421   1.502       .  S
C395        H400   1.085       .  S
C395        C396   1.365       .  D
C396        C723   1.501       .  S
C401        C402   1.532       .  S
C401        C407   1.545       .  S
C401        C405   1.541       .  S
C401        C713   1.554       .  S
C402        H409   1.080       .  S
C402        C403   1.367       .  D
C403        C404   1.550       .  S
C403        C683   1.502       .  S
C404        C408   1.551       .  S
C404        C406   1.543       .  S
C405        H411   1.088       .  S
C405        C406   1.365       .  D
C407        H412   1.089       .  S
C407        C408   1.373       .  D
O413       Ni421   1.912       .  S
O413        C423   1.280       .  A
O414       Ni421   1.915   1_554  S
O414        C424   1.279       .  A
O415       Ni421   1.920       .  S
O415        C425   1.281       .  A
O416       Ni421   1.912   1_554  S
O416        C426   1.279       .  A
O417       Ni422   1.919   1_554  S
O417        C426   1.281       .  A
O418       Ni422   1.914       .  S
O418        C425   1.279       .  A
O419       Ni422   1.922       .  S
O419        C424   1.281   1_556  A
O420       Ni422   1.918       .  S
O420        C423   1.282       .  A
Ni421      Ni422   2.383       .  S
C423        C703   1.483       .  S
C424        C590   1.510       .  S
C425        C643   1.473       .  S
C426        C600   1.472       .  S
O427       Ni435   1.907       .  S
O428       Ni435   1.911       .  S
O428        C438   1.279       .  A
O429       Ni435   1.927       .  S
O429        C439   1.283       .  A
O430       Ni435   1.920       .  S
O431        C440   1.280       .  A
O432      Ni1164   1.918   1_455  S
O432       C1167   1.281   1_455  A
O433      Ni1164   1.928   1_455  S
O433       C1166   1.284   1_455  A
O434        C437   1.283       .  A
Ni435      Ni436   2.388       .  S
Ni436      O1160   1.918       .  S
Ni436      O1161   1.928       .  S
C437        C583   1.482       .  S
C438       C1401   1.482       .  S
C438       O1161   1.284       .  A
C439       C1298   1.483       .  S
C439       O1160   1.281       .  A
C440        C613   1.478       .  S
C441        N442   1.358       .  A
C441        N446   1.358       .  A
C441        C603   1.477       .  S
N442        C443   1.358       .  A
C443        N444   1.360       .  A
C443        C550   1.476       .  S
N444        C445   1.360       .  A
C445        N446   1.358       .  A
C445        C560   1.476       .  S
C447        N448   1.363       .  A
C447        N452   1.363       .  A
C447        C573   1.487       .  S
N448        C449   1.362       .  A
C449        N450   1.358       .  A
C449        C530   1.480       .  S
N450        C451   1.355       .  A
C451        N452   1.360       .  A
C451        C540   1.480       .  S
C453        N454   1.357       .  A
C453        N458   1.358       .  A
C453        C593   1.512       .  S
N454        C455   1.358       .  A
C455        N456   1.362       .  A
C455        C520   1.483       .  S
N456        C457   1.361       .  A
C457        N458   1.359       .  A
C457        C510   1.486       .  S
C459        N460   1.358       .  A
C459        N464   1.360       .  A
C459        C580   1.488       .  S
N460        C461   1.358       .  A
C461        N462   1.355       .  A
C461        C490   1.471       .  S
N462        C463   1.358       .  A
C463        N464   1.360       .  A
C463        C500   1.471       .  S
C465       C1194   1.534       .  S
C465        C471   1.548       .  S
C465        C469   1.530       .  S
C465       C1261   1.550       .  S
C466       C1193   1.534   1_455  S
C466        H473   1.080       .  S
C466       C1195   1.376   1_455  D
C467        C468   1.554       .  S
C467       C1194   1.376       .  D
C467       C1251   1.524       .  S
C468        C472   1.539       .  S
C468        C470   1.556       .  S
C468        H474   1.097       .  S
C469        H475   1.083       .  S
C469        C470   1.358       .  D
C470        C503   1.479       .  S
C471        H476   1.083       .  S
C471        C472   1.369       .  D
C472        C563   1.506       .  S
C477        C478   1.539       .  S
C477        C481   1.521       .  S
C478        H485   1.079       .  S
C478        C479   1.363       .  D
C479        C480   1.545       .  S
C479        C553   1.509       .  S
C480        C484   1.552       .  S
C480        C482   1.561       .  S
C480        H486   1.095       .  S
C481        H487   1.089       .  S
C481        C482   1.358       .  D
C482        C543   1.485       .  S
C483        H488   1.083       .  S
C489        C490   1.399       .  A
C489        C494   1.398   1_565  A
C489       Br496   1.930       .  S
C490        C491   1.404       .  A
C491        C492   1.413       .  A
C491       Br498   1.929       .  S
C492        C493   1.427       .  A
C492       Br497   1.934       .  S
C493        C494   1.424   1_565  A
C499        C500   1.409       .  A
C499        C504   1.407       .  A
C499       Br506   1.930       .  S
C500        C501   1.408       .  A
C501        C502   1.405       .  A
C501       Br508   1.929       .  S
C502        C503   1.409       .  A
C502       Br507   1.933       .  S
C503        C504   1.411       .  A
C504       Br505   1.931       .  S
C509        C510   1.407       .  A
C509        C514   1.418       .  A
C509       Br516   1.933       .  S
C510        C511   1.406       .  A
C511        C512   1.407       .  A
C511       Br518   1.934       .  S
C512        C513   1.422       .  A
C512       Br517   1.933       .  S
C513        C514   1.430       .  A
C519        C520   1.404       .  A
C519        C524   1.407       .  A
C519       Br526   1.937       .  S
C520        C521   1.405       .  A
C521        C522   1.417       .  A
C521       Br528   1.933       .  S
C522        C523   1.432       .  A
C522      Br1255   1.930   1_455  S
C523       C1195   1.524   1_455  S
C523        C524   1.427       .  A
C524       Br525   1.935       .  S
Br527      C1250   1.930       .  S
C529        C530   1.406       .  A
C529        C534   1.405       .  A
C529       Br536   1.935       .  S
C530        C531   1.407       .  A
C531        C532   1.414       .  A
C531       Br538   1.929       .  S
C532        C533   1.426       .  A
C532      Br1265   1.936       .  S
C533       C1193   1.550   1_455  S
C533        C534   1.421       .  A
C534       Br535   1.926       .  S
Br537      C1260   1.936       .  S
C539        C540   1.409       .  A
C539        C544   1.405       .  A
C539       Br546   1.923       .  S
C540        C541   1.410       .  A
C541        C542   1.411       .  A
C541       Br548   1.929       .  S
C542        C543   1.412       .  A
C542       Br547   1.932       .  S
C543        C544   1.407       .  A
C544       Br545   1.931       .  S
C549        C550   1.404       .  A
C549        C554   1.410       .  A
C549       Br556   1.935       .  S
C550        C551   1.404       .  A
C551        C552   1.410       .  A
C551       Br558   1.931       .  S
C552        C553   1.424       .  A
C552       Br557   1.933       .  S
C553        C554   1.421       .  A
C554       Br555   1.924       .  S
C559        C560   1.406       .  A
C559        C564   1.411       .  A
C559       Br566   1.931       .  S
C560        C561   1.404       .  A
C561        C562   1.408       .  A
C561       Br568   1.929       .  S
C562        C563   1.413       .  A
C562       Br567   1.920       .  S
C563        C564   1.418       .  A
C564       Br565   1.921       .  S
C569        C570   1.410       .  A
C569        C574   1.414       .  A
C569      Br1304   1.929       .  S
C570       C1167   1.483   1_455  S
C570        C571   1.412       .  A
C571        C572   1.406       .  A
C571       Br578   1.931       .  S
C572        C573   1.409       .  A
C572       Br577   1.926       .  S
C573        C574   1.413       .  A
C574       Br575   1.925       .  S
Br576      C1297   1.929       .  S
C579        C580   1.415       .  A
C579        C584   1.406   1_565  A
C579       Br586   1.930   1_565  S
C580        C581   1.415       .  A
C581        C582   1.411       .  A
C581       Br588   1.932       .  S
C582        C583   1.411       .  A
C582       Br587   1.931       .  S
C583        C584   1.414   1_565  A
C584       Br585   1.940       .  S
C589        C590   1.424       .  A
C589        C594   1.413       .  A
C589       Br596   1.941       .  S
C590        C591   1.424       .  A
C591        C592   1.414       .  A
C591       Br598   1.939       .  S
C592        C593   1.420       .  A
C592       Br597   1.940       .  S
C593        C594   1.420       .  A
C594       Br595   1.940       .  S
C599        C600   1.408       .  A
C599        C604   1.408       .  A
C599       Br606   1.932       .  S
C600        C601   1.409       .  A
C601        C602   1.407       .  A
C601       Br608   1.930       .  S
C602        C603   1.410       .  A
C602       Br607   1.931       .  S
C603        C604   1.412       .  A
C604       Br605   1.928       .  S
C609        C610   1.412       .  A
C609        C614   1.405       .  A
C609       Br616   1.935       .  S
C610        C611   1.410       .  A
C611        C612   1.410       .  A
C611       Br618   1.929       .  S
C612        C613   1.411       .  A
C612       Br617   1.930       .  S
C613        C614   1.412       .  A
C614       Br615   1.933       .  S
C619        C620   1.408       .  A
C619        C624   1.402   1_565  A
C619       Br626   1.936   1_565  S
C620        C621   1.411       .  A
C621        C622   1.417       .  A
C621       Br628   1.933       .  S
C622        C623   1.421   1_565  A
C622       Br627   1.923       .  S
C623        C624   1.415       .  A
C629        C630   1.402       .  A
C629        C634   1.411       .  A
C629       Br636   1.936       .  S
C630        C631   1.402       .  A
C631        C632   1.409       .  A
C631       Br638   1.937       .  S
C632        C633   1.430       .  A
C632       Br637   1.926       .  S
C633        C634   1.433       .  A
C634       Br635   1.935       .  S
C639        C640   1.408       .  A
C639        C644   1.405       .  A
C639       Br646   1.929       .  S
C640        C641   1.408       .  A
C641        C642   1.408       .  A
C641       Br648   1.929       .  S
C642        C643   1.408       .  A
C642       Br647   1.928       .  S
C643        C644   1.411       .  A
C644       Br645   1.930       .  S
C649        C650   1.417       .  A
C649        C654   1.411       .  A
C649       Br656   1.935       .  S
C650        C651   1.418       .  A
C651        C652   1.409       .  A
C651       Br658   1.929       .  S
C652        C653   1.412       .  A
C653        C654   1.409       .  A
C654       Br655   1.924   1_565  S
C659        C660   1.414       .  A
C659        C664   1.410       .  A
C659       Br666   1.917       .  S
C660       C1119   1.497   1_455  S
C660       C1389   1.414       .  A
C661       C1388   1.414       .  A
C661       C1390   1.407       .  A
C661       Br668   1.925       .  S
C662       C1389   1.407       .  A
C662        C663   1.406       .  A
C662       Br667   1.929       .  S
C663        C664   1.405       .  A
C664       Br665   1.931       .  S
C669        C670   1.412       .  A
C669        C674   1.412       .  A
C669       Br676   1.925       .  S
C670        C671   1.410       .  A
C671        C672   1.406   1_455  A
C671       Br678   1.933   1_455  S
C672        C673   1.415   1_655  A
C672      Br1405   1.934       .  S
C673       C1166   1.482   1_455  S
C673        C674   1.409       .  A
C674       Br675   1.929       .  S
Br677      C1400   1.934       .  S
C679        C680   1.422       .  A
C679        C684   1.414       .  A
C679       Br686   1.929       .  S
C680        C681   1.422       .  A
C681        C682   1.413       .  A
C681       Br688   1.935       .  S
C682        C683   1.415       .  A
C682       Br687   1.937       .  S
C683        C684   1.411       .  A
C684       Br685   1.929       .  S
C689        C690   1.405       .  A
C689        C694   1.412       .  A
C689       Br696   1.930       .  S
C690        C691   1.406   1_455  A
C691        C692   1.409       .  A
C691       Br698   1.933       .  S
C692        C693   1.417       .  A
C692       Br697   1.924       .  S
C693       C1122   1.502       .  S
C693        C694   1.422   1_655  A
C694      Br1423   1.934       .  S
Br695      C1422   1.934       .  S
C699        C700   1.411       .  A
C699        C704   1.410       .  A
C699       Br706   1.929       .  S
C700        C701   1.413       .  A
C701        C702   1.406       .  A
C701       Br708   1.937       .  S
C702        C703   1.415       .  A
C702       Br707   1.937       .  S
C703        C704   1.413       .  A
C704       Br705   1.933       .  S
C709        C710   1.419       .  A
C709        C714   1.401       .  A
C709       Br716   1.942       .  S
C710        C711   1.423       .  A
C711        C712   1.416       .  A
C711       Br718   1.937       .  S
C712        C713   1.422       .  A
C712       Br717   1.935       .  S
C713        C714   1.413       .  A
C714       Br715   1.921       .  S
C719        C720   1.408       .  A
C719        C724   1.401       .  A
C719       Br726   1.937       .  S
C720        C721   1.408       .  A
C721        C722   1.415       .  A
C721       Br728   1.928       .  S
C722        C723   1.419       .  A
C722       Br727   1.926       .  S
C723        C724   1.418       .  A
C724       Br725   1.935       .  S
C729        N730   1.362       .  A
C729        N734   1.361       .  A
C729       C1064   1.482       .  S
N730        C731   1.359       .  A
C731        N732   1.354       .  A
C731       C1084   1.479       .  S
N732        C733   1.353       .  A
C733        N734   1.357       .  A
C733       C1074   1.510       .  S
C735        N736   1.363       .  A
C735        N740   1.357       .  A
C735       C1034   1.483       .  S
N736        C737   1.365       .  A
C737        N738   1.363       .  A
C737       C1044   1.511       .  S
N738        C739   1.360       .  A
C739        N740   1.354       .  A
C739       C1054   1.478       .  S
C741        N742   1.358       .  A
C741        N746   1.356       .  A
C741       C1004   1.471       .  S
N742        C743   1.360       .  A
C743        N744   1.362       .  A
C743       C1014   1.496       .  S
N744        C745   1.360       .  A
C745        N746   1.356       .  A
C745       C1027   1.474       .  S
C747        N748   1.358       .  A
C747        N752   1.356       .  A
C747        C974   1.477       .  S
N748        C749   1.360       .  A
C749        N750   1.360       .  A
C749        C984   1.484       .  S
N750        C751   1.360       .  A
C751        N752   1.355       .  A
C751        C994   1.476       .  S
C753        C754   1.543       .  S
C753        C759   1.525       .  S
C753        C757   1.546       .  S
C753        C997   1.557       .  S
C754        H761   1.083       .  S
C754        C755   1.372       .  D
C755        C756   1.549       .  S
C756        C760   1.550       .  S
C756        C758   1.545       .  S
C756        H762   1.108       .  S
C757        H763   1.082       .  S
C757        C758   1.367       .  D
C759        H764   1.085       .  S
C759        C760   1.365       .  D
C760       C1087   1.501       .  S
C765        C766   1.532       .  S
C765        C771   1.545       .  S
C765        C769   1.541       .  S
C765       C1077   1.554       .  S
C766        H773   1.080       .  S
C766        C767   1.367       .  D
C767        C768   1.550       .  S
C767       C1047   1.502       .  S
C768        C772   1.551       .  S
C768        C770   1.543       .  S
C768       H1138   1.107       .  S
C769        H775   1.088       .  S
C769        C770   1.365       .  D
C770       C1381   1.493   1_545  S
C771        H776   1.089       .  S
C771        C772   1.373       .  D
C772       C1351   1.512       .  S
H774       C1132   1.107       .  S
O777       Ni785   1.912       .  S
O777        C787   1.280       .  A
O778       Ni785   1.915   1_554  S
O778        C788   1.279       .  A
O779       Ni785   1.920       .  S
O779        C789   1.281       .  A
O780       Ni785   1.912   1_554  S
O780        C790   1.279       .  A
O781       Ni786   1.919   1_554  S
O781        C790   1.281       .  A
O782       Ni786   1.914       .  S
O782        C789   1.279       .  A
O783       Ni786   1.922       .  S
O783        C788   1.281   1_556  A
O784       Ni786   1.918       .  S
O784        C787   1.282       .  A
Ni785      Ni786   2.383       .  S
C787       C1067   1.483       .  S
C788        C954   1.510       .  S
C789       C1007   1.473       .  S
C790        C964   1.472       .  S
O791       Ni799   1.907       .  S
O791       C1165   1.278   1_545  A
O792       Ni799   1.911       .  S
O792        C802   1.279       .  A
O793       Ni799   1.927       .  S
O793        C803   1.283       .  A
O794       Ni799   1.920       .  S
O794       C1168   1.282   1_545  A
O795      Ni1164   1.915       .  S
O795        C804   1.280       .  A
O798      Ni1164   1.924       .  S
O798        C801   1.283       .  A
Ni799      Ni800   2.388       .  S
Ni800      O1159   1.915   1_545  S
Ni800      O1162   1.924   1_545  S
C801        C947   1.482       .  S
C801       O1155   1.278       .  A
C804        C977   1.478       .  S
C804       O1158   1.282       .  A
C805        N806   1.358       .  A
C805        N810   1.358       .  A
C805        C967   1.477       .  S
N806        C807   1.358       .  A
C807        N808   1.360       .  A
C807        C914   1.476       .  S
N808        C809   1.360       .  A
C809        N810   1.358       .  A
C809        C924   1.476       .  S
C811        N812   1.363       .  A
C811        N816   1.363       .  A
C811        C937   1.487       .  S
N812        C813   1.362       .  A
C813        N814   1.358       .  A
C813        C894   1.480       .  S
N814        C815   1.355       .  A
C815        N816   1.360       .  A
C815        C904   1.480       .  S
C817        N818   1.357       .  A
C817        N822   1.358       .  A
C817        C957   1.512       .  S
N818        C819   1.358       .  A
C819        N820   1.362       .  A
C819        C884   1.483       .  S
N820        C821   1.361       .  A
C821        N822   1.359       .  A
C821        C874   1.486       .  S
C823        N824   1.358       .  A
C823        N828   1.360       .  A
C823        C944   1.488       .  S
N824        C825   1.358       .  A
C825        N826   1.355       .  A
C825        C854   1.471       .  S
N826        C827   1.358       .  A
C827        N828   1.360       .  A
C827        C864   1.471       .  S
C829        C835   1.548       .  S
C829        C833   1.530       .  S
C830        H837   1.080       .  S
C831        C832   1.554       .  S
C832        C836   1.539       .  S
C832        C834   1.556       .  S
C832        H838   1.097       .  S
C833        H839   1.083       .  S
C833        C834   1.358       .  D
C834        C867   1.479       .  S
C835        H840   1.083       .  S
C835        C836   1.369       .  D
C836        C927   1.506       .  S
C841        C842   1.539       .  S
C841       C1211   1.544   1_545  S
C841        C845   1.521       .  S
C841       C1221   1.545   1_545  S
C842        H849   1.079       .  S
C842        C843   1.363       .  D
C843        C844   1.545       .  S
C843        C917   1.509       .  S
C844        C848   1.552       .  S
C844        C846   1.561       .  S
C844        H850   1.095       .  S
C845        H851   1.089       .  S
C845        C846   1.358       .  D
C846        C907   1.485       .  S
C847       C1205   1.544       .  S
C847        H852   1.083       .  S
C847       C1212   1.378       .  D
C848       C1211   1.378   1_545  D
C848       C1241   1.524   1_545  S
C853        C854   1.399       .  A
C853        C858   1.398       .  A
C853       Br860   1.930       .  S
C854        C855   1.404       .  A
C855        C856   1.413       .  A
C855       Br862   1.929       .  S
C856        C857   1.427       .  A
C856       Br861   1.934       .  S
C857       C1205   1.545       .  S
C857        C858   1.424       .  A
C858      Br1223   1.938       .  S
Br859      C1222   1.938       .  S
C863        C864   1.409       .  A
C863        C868   1.407       .  A
C863       Br870   1.930       .  S
C864        C865   1.408       .  A
C865        C866   1.405       .  A
C865       Br872   1.929       .  S
C866        C867   1.409       .  A
C866       Br871   1.933       .  S
C867        C868   1.411       .  A
C868       Br869   1.931   1_655  S
C873        C874   1.407       .  A
C873        C878   1.418       .  A
C873       Br880   1.933       .  S
C874        C875   1.406       .  A
C875        C876   1.407       .  A
C875       Br882   1.934       .  S
C876        C877   1.422       .  A
C876       Br881   1.933       .  S
C877       C1212   1.524       .  S
C877        C878   1.430       .  A
C878      Br1243   1.930       .  S
Br879      C1242   1.930   1_545  S
C883        C884   1.404       .  A
C883        C888   1.407       .  A
C883       Br890   1.937       .  S
C884        C885   1.405       .  A
C885        C886   1.417       .  A
C885       Br892   1.933       .  S
C886        C887   1.432       .  A
C887        C888   1.427       .  A
C888       Br889   1.935       .  S
C893        C894   1.406       .  A
C893        C898   1.405       .  A
C893       Br900   1.935       .  S
C894        C895   1.407       .  A
C895        C896   1.414       .  A
C895       Br902   1.929       .  S
C896        C897   1.426       .  A
C897        C898   1.421       .  A
C898       Br899   1.926       .  S
C903        C904   1.409       .  A
C903        C908   1.405       .  A
C903       Br910   1.923       .  S
C904        C905   1.410       .  A
C905        C906   1.411       .  A
C905       Br912   1.929       .  S
C906        C907   1.412       .  A
C906       Br911   1.932       .  S
C907        C908   1.407       .  A
C908       Br909   1.931   1_545  S
C913        C914   1.404       .  A
C913        C918   1.410       .  A
C913       Br920   1.935       .  S
C914        C915   1.404       .  A
C915        C916   1.410       .  A
C915       Br922   1.931       .  S
C916        C917   1.424       .  A
C916       Br921   1.933       .  S
C917        C918   1.421       .  A
C918       Br919   1.924       .  S
C923        C924   1.406       .  A
C923        C928   1.411       .  A
C923       Br930   1.931       .  S
C924        C925   1.404       .  A
C925        C926   1.408       .  A
C925       Br932   1.929       .  S
C926        C927   1.413       .  A
C926       Br931   1.920       .  S
C927        C928   1.418       .  A
C928       Br929   1.921       .  S
C933        C934   1.410       .  A
C933        C938   1.414       .  A
C934        C935   1.412       .  A
C935        C936   1.406       .  A
C935       Br942   1.931       .  S
C936        C937   1.409       .  A
C936       Br941   1.926       .  S
C937        C938   1.413       .  A
C938       Br939   1.925       .  S
C943        C944   1.415       .  A
C943        C948   1.406       .  A
C943       Br950   1.930       .  S
C944        C945   1.415       .  A
C945        C946   1.411       .  A
C945       Br952   1.932       .  S
C946        C947   1.411       .  A
C946       Br951   1.931       .  S
C947        C948   1.414       .  A
C948       Br949   1.940       .  S
C953        C954   1.424       .  A
C953        C958   1.413       .  A
C953       Br960   1.941       .  S
C954        C955   1.424       .  A
C955        C956   1.414       .  A
C955       Br962   1.939       .  S
C956        C957   1.420       .  A
C956       Br961   1.940       .  S
C957        C958   1.420       .  A
C958       Br959   1.940       .  S
C963        C964   1.408       .  A
C963        C968   1.408       .  A
C963       Br970   1.932       .  S
C964        C965   1.409       .  A
C965        C966   1.407       .  A
C965       Br972   1.930       .  S
C966        C967   1.410       .  A
C966       Br971   1.931       .  S
C967        C968   1.412       .  A
C968       Br969   1.928       .  S
C973        C974   1.412       .  A
C973        C978   1.405       .  A
C973       Br980   1.935       .  S
C974        C975   1.410       .  A
C975        C976   1.410       .  A
C975       Br982   1.929       .  S
C976        C977   1.411       .  A
C976       Br981   1.930       .  S
C977        C978   1.412       .  A
C978       Br979   1.933       .  S
C983        C984   1.408       .  A
C983        C988   1.402       .  A
C983       Br990   1.936       .  S
C984        C985   1.411       .  A
C985        C986   1.417       .  A
C985       Br992   1.933       .  S
C986        C987   1.421       .  A
C986       Br991   1.923       .  S
C987       C1136   1.512       .  S
C987        C988   1.415       .  A
C988      Br1353   1.921       .  S
Br989      C1352   1.921       .  S
C993        C994   1.402       .  A
C993        C998   1.411       .  A
C993      Br1000   1.936       .  S
C994        C995   1.402       .  A
C995        C996   1.409       .  A
C995      Br1002   1.937       .  S
C996        C997   1.430       .  A
C996      Br1001   1.926       .  S
C997        C998   1.433       .  A
C998       Br999   1.935       .  S
C1003      C1004   1.408       .  A
C1003      C1008   1.405       .  A
C1003     Br1010   1.929       .  S
C1004      C1005   1.408       .  A
C1005      C1006   1.408       .  A
C1005     Br1012   1.929       .  S
C1006      C1007   1.408       .  A
C1006     Br1011   1.928       .  S
C1007      C1008   1.411       .  A
C1008     Br1009   1.930       .  S
C1013      C1014   1.417       .  A
C1013      C1018   1.411       .  A
C1013     Br1020   1.935       .  S
C1014      C1015   1.418       .  A
C1015      C1016   1.409       .  A
C1015     Br1022   1.929       .  S
C1016      C1017   1.412       .  A
C1016     Br1385   1.938       .  S
C1017      C1134   1.493       .  S
C1017      C1018   1.409       .  A
C1018     Br1019   1.924       .  S
Br1021     C1380   1.938       .  S
C1023      C1024   1.414       .  A
C1023      C1028   1.410       .  A
C1023     Br1030   1.917       .  S
C1025     Br1032   1.925   1_455  S
C1026      C1027   1.406       .  A
C1026     Br1031   1.929       .  S
C1027      C1028   1.405       .  A
C1028     Br1029   1.931       .  S
C1033      C1034   1.412       .  A
C1033      C1038   1.412       .  A
C1033     Br1040   1.925       .  S
C1034      C1035   1.410       .  A
C1035      C1036   1.406       .  A
C1035     Br1042   1.933       .  S
C1036      C1037   1.415       .  A
C1037      C1038   1.409       .  A
C1038     Br1039   1.929       .  S
C1043      C1044   1.422       .  A
C1043      C1048   1.414       .  A
C1043     Br1050   1.929       .  S
C1044      C1045   1.422       .  A
C1045      C1046   1.413       .  A
C1045     Br1052   1.935       .  S
C1046      C1047   1.415       .  A
C1046     Br1051   1.937       .  S
C1047      C1048   1.411       .  A
C1048     Br1049   1.929       .  S
C1053      C1054   1.405       .  A
C1053      C1058   1.412       .  A
C1053     Br1060   1.930       .  S
C1054      C1055   1.406       .  A
C1055      C1056   1.409       .  A
C1055     Br1062   1.933       .  S
C1056      C1057   1.417       .  A
C1056     Br1061   1.924       .  S
C1057      C1058   1.422       .  A
C1063      C1064   1.411       .  A
C1063      C1068   1.410       .  A
C1063     Br1070   1.929       .  S
C1064      C1065   1.413       .  A
C1065      C1066   1.406       .  A
C1065     Br1072   1.937       .  S
C1066      C1067   1.415       .  A
C1066     Br1071   1.937       .  S
C1067      C1068   1.413       .  A
C1068     Br1069   1.933       .  S
C1073      C1074   1.419       .  A
C1073      C1078   1.401       .  A
C1073     Br1080   1.942       .  S
C1074      C1075   1.423       .  A
C1075      C1076   1.416       .  A
C1075     Br1082   1.937       .  S
C1076      C1077   1.422       .  A
C1076     Br1081   1.935       .  S
C1077      C1078   1.413       .  A
C1078     Br1079   1.921       .  S
C1083      C1084   1.408       .  A
C1083      C1088   1.401       .  A
C1083     Br1090   1.937       .  S
C1084      C1085   1.408       .  A
C1085      C1086   1.415       .  A
C1085     Br1092   1.928       .  S
C1086      C1087   1.419       .  A
C1086     Br1091   1.926       .  S
C1087      C1088   1.418       .  A
C1088     Br1089   1.935       .  S
C1093      N1094   1.362       .  A
C1093      N1098   1.361       .  A
C1093      C1428   1.482       .  S
N1094      C1095   1.359       .  A
C1095      N1096   1.354       .  A
C1095      C1448   1.479       .  S
N1096      C1097   1.353       .  A
C1097      N1098   1.357       .  A
C1097      C1438   1.510       .  S
C1099      N1100   1.363       .  A
C1099      N1104   1.357       .  A
C1099      C1398   1.483       .  S
N1100      C1101   1.365       .  A
C1101      N1102   1.363       .  A
C1101      C1408   1.511       .  S
N1102      C1103   1.360       .  A
C1103      N1104   1.354       .  A
C1103      C1418   1.478       .  S
C1105      N1106   1.358       .  A
C1105      N1110   1.356       .  A
C1105      C1368   1.471       .  S
N1106      C1107   1.360       .  A
C1107      N1108   1.362       .  A
C1107      C1378   1.496       .  S
N1108      C1109   1.360       .  A
C1109      N1110   1.356       .  A
C1109      C1391   1.474       .  S
C1111      N1112   1.358       .  A
C1111      N1116   1.356       .  A
C1111      C1338   1.477       .  S
N1112      C1113   1.360       .  A
C1113      N1114   1.360       .  A
C1113      C1348   1.484       .  S
N1114      C1115   1.360       .  A
C1115      N1116   1.355       .  A
C1115      C1358   1.476       .  S
C1117      C1118   1.543       .  S
C1117      C1123   1.525       .  S
C1117      C1121   1.546       .  S
C1117      C1361   1.557       .  S
C1118      H1125   1.083       .  S
C1118      C1119   1.372       .  D
C1119      C1120   1.549       .  S
C1120      C1124   1.550       .  S
C1120      C1122   1.545       .  S
C1120      H1126   1.108       .  S
C1121      H1127   1.082       .  S
C1121      C1122   1.367       .  D
C1123      H1128   1.085       .  S
C1123      C1124   1.365       .  D
C1124      C1451   1.501       .  S
C1129      C1130   1.532       .  S
C1129      C1135   1.545       .  S
C1129      C1133   1.541       .  S
C1129      C1441   1.554       .  S
C1130      H1137   1.080       .  S
C1130      C1131   1.367       .  D
C1131      C1132   1.550       .  S
C1131      C1411   1.502       .  S
C1132      C1136   1.551       .  S
C1132      C1134   1.543       .  S
C1133      H1139   1.088       .  S
C1133      C1134   1.365       .  D
C1135      H1140   1.089       .  S
C1135      C1136   1.373       .  D
O1141     Ni1149   1.912       .  S
O1141      C1151   1.280       .  A
O1142     Ni1149   1.915   1_554  S
O1142      C1152   1.279       .  A
O1143     Ni1149   1.920       .  S
O1143      C1153   1.281       .  A
O1144     Ni1149   1.912   1_554  S
O1144      C1154   1.279       .  A
O1145     Ni1150   1.919   1_554  S
O1145      C1154   1.281       .  A
O1146     Ni1150   1.914       .  S
O1146      C1153   1.279       .  A
O1147     Ni1150   1.922       .  S
O1147      C1152   1.281   1_556  A
O1148     Ni1150   1.918       .  S
O1148      C1151   1.282       .  A
Ni1149    Ni1150   2.383       .  S
C1151      C1431   1.483       .  S
C1152      C1318   1.510       .  S
C1153      C1371   1.473       .  S
C1154      C1328   1.472       .  S
O1155     Ni1163   1.907       .  S
O1156     Ni1163   1.911       .  S
O1156      C1166   1.279       .  A
O1157     Ni1163   1.927       .  S
O1157      C1167   1.283       .  A
O1158     Ni1163   1.920       .  S
O1159      C1168   1.280       .  A
O1162      C1165   1.283       .  A
Ni1163    Ni1164   2.388       .  S
C1165      C1311   1.482       .  S
C1168      C1341   1.478       .  S
C1169      N1170   1.358       .  A
C1169      N1174   1.358       .  A
C1169      C1331   1.477       .  S
N1170      C1171   1.358       .  A
C1171      N1172   1.360       .  A
C1171      C1278   1.476       .  S
N1172      C1173   1.360       .  A
C1173      N1174   1.358       .  A
C1173      C1288   1.476       .  S
C1175      N1176   1.363       .  A
C1175      N1180   1.363       .  A
C1175      C1301   1.487       .  S
N1176      C1177   1.362       .  A
C1177      N1178   1.358       .  A
C1177      C1258   1.480       .  S
N1178      C1179   1.355       .  A
C1179      N1180   1.360       .  A
C1179      C1268   1.480       .  S
C1181      N1182   1.357       .  A
C1181      N1186   1.358       .  A
C1181      C1321   1.512       .  S
N1182      C1183   1.358       .  A
C1183      N1184   1.362       .  A
C1183      C1248   1.483       .  S
N1184      C1185   1.361       .  A
C1185      N1186   1.359       .  A
C1185      C1238   1.486       .  S
C1187      N1188   1.358       .  A
C1187      N1192   1.360       .  A
C1187      C1308   1.488       .  S
N1188      C1189   1.358       .  A
C1189      N1190   1.355       .  A
C1189      C1218   1.471       .  S
N1190      C1191   1.358       .  A
C1191      N1192   1.360       .  A
C1191      C1228   1.471       .  S
C1193      C1199   1.548       .  S
C1193      C1197   1.530       .  S
C1194      H1201   1.080       .  S
C1195      C1196   1.554       .  S
C1196      C1200   1.539       .  S
C1196      C1198   1.556       .  S
C1196      H1202   1.097       .  S
C1197      H1203   1.083       .  S
C1197      C1198   1.358       .  D
C1198      C1231   1.479       .  S
C1199      H1204   1.083       .  S
C1199      C1200   1.369       .  D
C1200      C1291   1.506       .  S
C1205      C1206   1.539       .  S
C1205      C1209   1.521       .  S
C1206      H1213   1.079       .  S
C1206      C1207   1.363       .  D
C1207      C1208   1.545       .  S
C1207      C1281   1.509       .  S
C1208      C1212   1.552       .  S
C1208      C1210   1.561       .  S
C1208      H1214   1.095       .  S
C1209      H1215   1.089       .  S
C1209      C1210   1.358       .  D
C1210      C1271   1.485       .  S
C1211      H1216   1.083       .  S
C1217      C1218   1.399       .  A
C1217      C1222   1.398   1_565  A
C1217     Br1224   1.930       .  S
C1218      C1219   1.404       .  A
C1219      C1220   1.413       .  A
C1219     Br1226   1.929       .  S
C1220      C1221   1.427       .  A
C1220     Br1225   1.934       .  S
C1221      C1222   1.424   1_565  A
C1227      C1228   1.409       .  A
C1227      C1232   1.407       .  A
C1227     Br1234   1.930       .  S
C1228      C1229   1.408       .  A
C1229      C1230   1.405       .  A
C1229     Br1236   1.929       .  S
C1230      C1231   1.409       .  A
C1230     Br1235   1.933       .  S
C1231      C1232   1.411       .  A
C1232     Br1233   1.931   1_655  S
C1237      C1238   1.407       .  A
C1237      C1242   1.418       .  A
C1237     Br1244   1.933       .  S
C1238      C1239   1.406       .  A
C1239      C1240   1.407       .  A
C1239     Br1246   1.934       .  S
C1240      C1241   1.422       .  A
C1240     Br1245   1.933       .  S
C1241      C1242   1.430       .  A
C1247      C1248   1.404       .  A
C1247      C1252   1.407       .  A
C1247     Br1254   1.937       .  S
C1248      C1249   1.405       .  A
C1249      C1250   1.417       .  A
C1249     Br1256   1.933       .  S
C1250      C1251   1.432       .  A
C1251      C1252   1.427       .  A
C1252     Br1253   1.935       .  S
C1257      C1258   1.406       .  A
C1257      C1262   1.405       .  A
C1257     Br1264   1.935       .  S
C1258      C1259   1.407       .  A
C1259      C1260   1.414       .  A
C1259     Br1266   1.929       .  S
C1260      C1261   1.426       .  A
C1261      C1262   1.421       .  A
C1262     Br1263   1.926       .  S
C1267      C1268   1.409       .  A
C1267      C1272   1.405       .  A
C1267     Br1274   1.923       .  S
C1268      C1269   1.410       .  A
C1269      C1270   1.411       .  A
C1269     Br1276   1.929       .  S
C1270      C1271   1.412       .  A
C1270     Br1275   1.932       .  S
C1271      C1272   1.407       .  A
C1272     Br1273   1.931       .  S
C1277      C1278   1.404       .  A
C1277      C1282   1.410       .  A
C1277     Br1284   1.935       .  S
C1278      C1279   1.404       .  A
C1279      C1280   1.410       .  A
C1279     Br1286   1.931       .  S
C1280      C1281   1.424       .  A
C1280     Br1285   1.933       .  S
C1281      C1282   1.421       .  A
C1282     Br1283   1.924       .  S
C1287      C1288   1.406       .  A
C1287      C1292   1.411       .  A
C1287     Br1294   1.931       .  S
C1288      C1289   1.404       .  A
C1289      C1290   1.408       .  A
C1289     Br1296   1.929       .  S
C1290      C1291   1.413       .  A
C1290     Br1295   1.920       .  S
C1291      C1292   1.418       .  A
C1292     Br1293   1.921       .  S
C1297      C1298   1.410       .  A
C1297      C1302   1.414       .  A
C1298      C1299   1.412       .  A
C1299      C1300   1.406       .  A
C1299     Br1306   1.931       .  S
C1300      C1301   1.409       .  A
C1300     Br1305   1.926       .  S
C1301      C1302   1.413       .  A
C1302     Br1303   1.925       .  S
C1307      C1308   1.415       .  A
C1307      C1312   1.406   1_565  A
C1307     Br1314   1.930   1_565  S
C1308      C1309   1.415       .  A
C1309      C1310   1.411       .  A
C1309     Br1316   1.932       .  S
C1310      C1311   1.411       .  A
C1310     Br1315   1.931       .  S
C1311      C1312   1.414   1_565  A
C1312     Br1313   1.940       .  S
C1317      C1318   1.424       .  A
C1317      C1322   1.413       .  A
C1317     Br1324   1.941       .  S
C1318      C1319   1.424       .  A
C1319      C1320   1.414       .  A
C1319     Br1326   1.939       .  S
C1320      C1321   1.420       .  A
C1320     Br1325   1.940       .  S
C1321      C1322   1.420       .  A
C1322     Br1323   1.940       .  S
C1327      C1328   1.408       .  A
C1327      C1332   1.408       .  A
C1327     Br1334   1.932       .  S
C1328      C1329   1.409       .  A
C1329      C1330   1.407       .  A
C1329     Br1336   1.930       .  S
C1330      C1331   1.410       .  A
C1330     Br1335   1.931       .  S
C1331      C1332   1.412       .  A
C1332     Br1333   1.928       .  S
C1337      C1338   1.412       .  A
C1337      C1342   1.405       .  A
C1337     Br1344   1.935       .  S
C1338      C1339   1.410       .  A
C1339      C1340   1.410       .  A
C1339     Br1346   1.929       .  S
C1340      C1341   1.411       .  A
C1340     Br1345   1.930       .  S
C1341      C1342   1.412       .  A
C1342     Br1343   1.933       .  S
C1347      C1348   1.408       .  A
C1347      C1352   1.402   1_565  A
C1347     Br1354   1.936   1_565  S
C1348      C1349   1.411       .  A
C1349      C1350   1.417       .  A
C1349     Br1356   1.933       .  S
C1350      C1351   1.421   1_565  A
C1350     Br1355   1.923       .  S
C1351      C1352   1.415       .  A
C1357      C1358   1.402       .  A
C1357      C1362   1.411       .  A
C1357     Br1364   1.936       .  S
C1358      C1359   1.402       .  A
C1359      C1360   1.409       .  A
C1359     Br1366   1.937       .  S
C1360      C1361   1.430       .  A
C1360     Br1365   1.926       .  S
C1361      C1362   1.433       .  A
C1362     Br1363   1.935       .  S
C1367      C1368   1.408       .  A
C1367      C1372   1.405       .  A
C1367     Br1374   1.929       .  S
C1368      C1369   1.408       .  A
C1369      C1370   1.408       .  A
C1369     Br1376   1.929       .  S
C1370      C1371   1.408       .  A
C1370     Br1375   1.928       .  S
C1371      C1372   1.411       .  A
C1372     Br1373   1.930       .  S
C1377      C1378   1.417       .  A
C1377      C1382   1.411       .  A
C1377     Br1384   1.935       .  S
C1378      C1379   1.418       .  A
C1379      C1380   1.409       .  A
C1379     Br1386   1.929       .  S
C1380      C1381   1.412       .  A
C1381      C1382   1.409       .  A
C1382     Br1383   1.924   1_565  S
C1387      C1388   1.414       .  A
C1387      C1392   1.410       .  A
C1387     Br1394   1.917       .  S
C1389     Br1396   1.925   1_455  S
C1390      C1391   1.406       .  A
C1390     Br1395   1.929       .  S
C1391      C1392   1.405       .  A
C1392     Br1393   1.931       .  S
C1397      C1398   1.412       .  A
C1397      C1402   1.412       .  A
C1397     Br1404   1.925       .  S
C1398      C1399   1.410       .  A
C1399      C1400   1.406       .  A
C1399     Br1406   1.933       .  S
C1400      C1401   1.415       .  A
C1401      C1402   1.409       .  A
C1402     Br1403   1.929       .  S
C1407      C1408   1.422       .  A
C1407      C1412   1.414       .  A
C1407     Br1414   1.929       .  S
C1408      C1409   1.422       .  A
C1409      C1410   1.413       .  A
C1409     Br1416   1.935       .  S
C1410      C1411   1.415       .  A
C1410     Br1415   1.937       .  S
C1411      C1412   1.411       .  A
C1412     Br1413   1.929       .  S
C1417      C1418   1.405       .  A
C1417      C1422   1.412       .  A
C1417     Br1424   1.930       .  S
C1418      C1419   1.406       .  A
C1419      C1420   1.409       .  A
C1419     Br1426   1.933       .  S
C1420      C1421   1.417       .  A
C1420     Br1425   1.924       .  S
C1421      C1422   1.422       .  A
C1427      C1428   1.411       .  A
C1427      C1432   1.410       .  A
C1427     Br1434   1.929       .  S
C1428      C1429   1.413       .  A
C1429      C1430   1.406       .  A
C1429     Br1436   1.937       .  S
C1430      C1431   1.415       .  A
C1430     Br1435   1.937       .  S
C1431      C1432   1.413       .  A
C1432     Br1433   1.933       .  S
C1437      C1438   1.419       .  A
C1437      C1442   1.401       .  A
C1437     Br1444   1.942       .  S
C1438      C1439   1.423       .  A
C1439      C1440   1.416       .  A
C1439     Br1446   1.937       .  S
C1440      C1441   1.422       .  A
C1440     Br1445   1.935       .  S
C1441      C1442   1.413       .  A
C1442     Br1443   1.921       .  S
C1447      C1448   1.408       .  A
C1447      C1452   1.401       .  A
C1447     Br1454   1.937       .  S
C1448      C1449   1.408       .  A
C1449      C1450   1.415       .  A
C1449     Br1456   1.928       .  S
C1450      C1451   1.419       .  A
C1450     Br1455   1.926       .  S
C1451      C1452   1.418       .  A
C1452     Br1453   1.935       .  S
