geometry optimzed in LAMMPS
_audit_creation_date              2020-11-30 
_audit_creation_method            'lammps2cif' 
_symmetry_space_group_name_H-M    'P1' 
_symmetry_Int_Tables_number       1 
_symmetry_cell_setting            triclinic 
loop_ 
_symmetry_equiv_pos_as_xyz 
  x,y,z 
_cell_length_a                    59.0979964 
_cell_length_b                    59.12206080767026 
_cell_length_c                    40.269942351978216 
_cell_angle_alpha                 89.94575918249389 
_cell_angle_beta                  89.97785565405711 
_cell_angle_gamma                 89.99706309280438 
loop_ 
_atom_site_label 
_atom_site_type_symbol 
_atom_site_fract_x 
_atom_site_fract_y 
_atom_site_fract_z 
_atom_site_charge 
N1          N  0.30026584  0.08529482  0.68307443    -0.25500
N2          N  0.29068470  0.06785825  0.66804625    -0.33400
C3          C  0.27248187  0.06128608  0.68567826     0.02800
C4          C  0.27063708  0.07527624  0.71294785     0.08800
C5          C  0.28842707  0.09029042  0.71064777    -0.04300
H6          H  0.26148749  0.04735225  0.67913486     0.09500
H7          H  0.29251958  0.10380837  0.72771587     0.10700
Cu8        Cu  0.30286828  0.05368396  0.62442506     0.44200
Cu9        Cu  0.32901203  0.10150780  0.66563189     0.42000
Cu10       Cu  0.35326064  0.07941540  0.58974468     0.43900
N11         N  0.31865360  0.04238232  0.58148067    -0.32900
N12         N  0.33706294  0.05180355  0.56887137    -0.27200
C13         C  0.34321435  0.04043604  0.54139446    -0.03300
C14         C  0.32793550  0.02311923  0.53661458     0.08900
C15         C  0.31259617  0.02474440  0.56234265     0.02700
H16         H  0.35780423  0.04440979  0.52623057     0.10400
H17         H  0.29821720  0.01386121  0.56698975     0.09500
N18         N  0.36643594  0.10678625  0.61534830    -0.34400
N19         N  0.35759446  0.11485404  0.64310444    -0.26600
C20         C  0.37000721  0.13259284  0.65336842    -0.01800
C21         C  0.38738907  0.13572561  0.63096467     0.06800
C22         C  0.38471143  0.11916674  0.60719100     0.04900
H23         H  0.36657604  0.14245709  0.67542257     0.10000
H24         H  0.39519637  0.11631952  0.58556094     0.08900
O25         O  0.47711483  0.27031859  0.60767389    -0.71200
O26         O  0.52423850  0.22129130  0.60771230    -0.72200
O27         O  0.47618815  0.22228857  0.60724759    -0.60800
O28         O  0.52516873  0.26932742  0.60800932    -0.69200
O29         O  0.52496992  0.26913540  0.66320867    -0.68800
O30         O  0.47592809  0.22203609  0.66244707    -0.60000
O31         O  0.52397955  0.22109934  0.66291140    -0.72500
O32         O  0.47691433  0.27006441  0.66287325    -0.71300
Cu33       Cu  0.50068568  0.24581420  0.60571353     1.04600
Cu34       Cu  0.50043964  0.24557565  0.66480730     1.04300
C35         C  0.46965345  0.27784430  0.63529173     0.95000
C36         C  0.53146975  0.21354145  0.63534142     0.94100
C37         C  0.46840278  0.21480663  0.63470549     0.86300
C38         C  0.53272510  0.27658971  0.63570273     0.92600
N39         N  0.66140601  0.04590185  0.58532399    -0.25500
N40         N  0.67903150  0.03645870  0.60011270    -0.33400
C41         C  0.68564403  0.01833452  0.58239411     0.02800
C42         C  0.67148413  0.01639348  0.55531628     0.08800
C43         C  0.65632671  0.03404740  0.55781935    -0.04300
H44         H  0.69971280  0.00745086  0.58875966     0.09500
H45         H  0.64265097  0.03803309  0.54094008     0.10700
Cu46       Cu  0.69337573  0.04867488  0.64357836     0.44200
Cu47       Cu  0.64505350  0.07448367  0.60300443     0.42000
Cu48       Cu  0.66738639  0.09869568  0.67876075     0.43900
N49         N  0.70471666  0.06434270  0.68656421    -0.32900
N50         N  0.69519440  0.08261663  0.69937319    -0.27200
C51         C  0.70657229  0.08868756  0.72688105    -0.03300
C52         C  0.72400091  0.07349664  0.73147121     0.08900
C53         C  0.72243034  0.05829369  0.70559808     0.02700
H54         H  0.70251377  0.10314957  0.74221700     0.10400
H55         H  0.73338276  0.04399661  0.70080753     0.09500
N56         N  0.63981476  0.11177392  0.65342381    -0.34400
N57         N  0.63165584  0.10294720  0.62572536    -0.26600
C58         C  0.61381406  0.11530338  0.61563463    -0.01800
C59         C  0.61070881  0.13263289  0.63809024     0.06800
C60         C  0.62739190  0.12998146  0.66171348     0.04900
H61         H  0.60387024  0.11187779  0.59365133     0.10000
H62         H  0.63030230  0.14044664  0.68332341     0.08900
N63         N  0.34023064  0.44586437  0.58484018    -0.25500
N64         N  0.32273540  0.45544229  0.59977004    -0.33400
C65         C  0.31612303  0.47355232  0.58197891     0.02800
C66         C  0.33014422  0.47534423  0.55470491     0.08800
C67         C  0.34522253  0.45761728  0.55716792    -0.04300
H68         H  0.30214382  0.48452495  0.58842543     0.09500
H69         H  0.35878646  0.45351518  0.54015090     0.10700
Cu70       Cu  0.30851283  0.44340718  0.64347981     0.44200
Cu71       Cu  0.35652895  0.41724156  0.60255926     0.42000
Cu72       Cu  0.33430173  0.39331672  0.67870610     0.43900
N73         N  0.29709321  0.42777627  0.68650562    -0.32900
N74         N  0.30654659  0.40946131  0.69933408    -0.27200
C75         C  0.29510456  0.40337675  0.72680797    -0.03300
C76         C  0.27770347  0.41860276  0.73135509     0.08900
C77         C  0.27935900  0.43384051  0.70549150     0.02700
H78         H  0.29909128  0.38887359  0.74213634     0.10400
H79         H  0.26843976  0.44816133  0.70066118     0.09500
N80         N  0.36173706  0.38006177  0.65326598    -0.34400
N81         N  0.36985357  0.38877043  0.62542600    -0.26600
C82         C  0.38760080  0.37629402  0.61530737    -0.01800
C83         C  0.39068573  0.35901183  0.63789347     0.06800
C84         C  0.37409117  0.36181494  0.66162036     0.04900
H85         H  0.39749495  0.37960662  0.59321792     0.10000
H86         H  0.37119239  0.35142440  0.68334358     0.08900
N87         N  0.69989880  0.40677604  0.68798962    -0.25500
N88         N  0.70934464  0.42446187  0.67335015    -0.33400
C89         C  0.72734842  0.43112406  0.69130641     0.02800
C90         C  0.72920670  0.41693514  0.71838744     0.08800
C91         C  0.71163107  0.40170712  0.71563503    -0.04300
H92         H  0.73821646  0.44523529  0.68508544     0.09500
H93         H  0.70762859  0.38797708  0.73242446     0.10700
Cu94       Cu  0.69729884  0.43880890  0.62975018     0.44200
Cu95       Cu  0.67149737  0.39031115  0.66988671     0.42000
Cu96       Cu  0.64761256  0.41265929  0.59381768     0.43900
N97         N  0.68175938  0.45023114  0.58667712    -0.32900
N98         N  0.66360482  0.44065419  0.57358448    -0.27200
C99         C  0.65758867  0.45212042  0.54610232    -0.03300
C100        C  0.67269208  0.46966349  0.54183176     0.08900
C101        C  0.68778507  0.46806617  0.56786069     0.02700
H102        H  0.64323027  0.44803622  0.53055840     0.10400
H103        H  0.70199908  0.47907578  0.57289450     0.09500
N104        N  0.63450207  0.38500857  0.61895970    -0.34400
N105        N  0.64320116  0.37685002  0.64677057    -0.26600
C106        C  0.63082819  0.35897771  0.65670711    -0.01800
C107        C  0.61362258  0.35585152  0.63403357     0.06800
C108        C  0.61636351  0.37255499  0.61044342     0.04900
H109        H  0.63415187  0.34903440  0.67874411     0.10000
H110        H  0.60599644  0.37546746  0.58871325     0.08900
N111        N  0.34014460  0.94635764  0.43293304    -0.25500
N112        N  0.32267123  0.95594319  0.41795416    -0.33400
C113        C  0.31598526  0.97400029  0.43575501     0.02800
C114        C  0.32993467  0.97574800  0.46308984     0.08800
C115        C  0.34504931  0.95805287  0.46065221    -0.04300
H116        H  0.30200006  0.98496116  0.42927966     0.09500
H117        H  0.35857471  0.95393046  0.47772054     0.10700
Cu118      Cu  0.30854745  0.94396357  0.37420875     0.44200
Cu119      Cu  0.35650526  0.91778689  0.41522892     0.42000
Cu120      Cu  0.33437249  0.89389083  0.33908881     0.43900
N121        N  0.29713600  0.92832498  0.33125650    -0.32900
N122        N  0.30659506  0.91001451  0.31846394    -0.27200
C123        C  0.29512426  0.90390491  0.29105733    -0.03300
C124        C  0.27770118  0.91911131  0.28652126     0.08900
C125        C  0.27937180  0.93436150  0.31231883     0.02700
H126        H  0.29909889  0.88939201  0.27577839     0.10400
H127        H  0.26843452  0.94866410  0.31715016     0.09500
N128        N  0.36178394  0.88063024  0.36459552    -0.34400
N129        N  0.36986196  0.88933084  0.39243192    -0.26600
C130        C  0.38757425  0.87683319  0.40263787    -0.01800
C131        C  0.39067922  0.85954455  0.38011394     0.06800
C132        C  0.37413076  0.86236606  0.35633129     0.04900
H133        H  0.39741998  0.88012486  0.42476016     0.10000
H134        H  0.37124640  0.85196491  0.33464689     0.08900
O135        O  0.52385760  0.72172450  0.41268963    -0.71200
O136        O  0.47672861  0.77074092  0.41169236    -0.72200
O137        O  0.47580378  0.72270898  0.41219472    -0.60800
O138        O  0.52478750  0.76975289  0.41231358    -0.69200
O139        O  0.52512869  0.76958578  0.35711620    -0.68800
O140        O  0.47608132  0.72248035  0.35699671    -0.60000
O141        O  0.47706460  0.77051239  0.35649519    -0.72500
O142        O  0.52413704  0.72155494  0.35749109    -0.71300
Cu143      Cu  0.50028234  0.74623994  0.41416926     1.04600
Cu144      Cu  0.50061240  0.74602674  0.35507742     1.04300
C145        C  0.53136334  0.71399169  0.38522180     0.95000
C146        C  0.46953279  0.77827677  0.38391648     0.94100
C147        C  0.46828809  0.71523536  0.38459925     0.86300
C148        C  0.53262358  0.77701850  0.38476081     0.92600
N149        N  0.66410243  0.94001019  0.44997659    -0.25500
N150        N  0.68245959  0.94946237  0.43725244    -0.33400
C151        C  0.68850382  0.96715542  0.45628751     0.02800
C152        C  0.67321339  0.96879183  0.48207444     0.08800
C153        C  0.65797221  0.95141929  0.47743230    -0.04300
H154        H  0.70284601  0.97806613  0.45153493     0.09500
H155        H  0.64342937  0.94742980  0.49268364     0.10700
Cu156      Cu  0.69820369  0.93814317  0.39428978     0.44200
Cu157      Cu  0.64796974  0.91228336  0.42927157     0.42000
Cu158      Cu  0.67220146  0.89015382  0.35336066     0.43900
N159        N  0.71032489  0.92402234  0.35059856    -0.32900
N160        N  0.70079094  0.90652348  0.33566307    -0.27200
C161        C  0.71255471  0.90158993  0.30799653    -0.03300
C162        C  0.73024671  0.91670917  0.30553961     0.08900
C163        C  0.72842260  0.93069676  0.33281547     0.02700
H164        H  0.70848247  0.88803725  0.29097689     0.10400
H165        H  0.73936169  0.94469430  0.33926485     0.09500
N166        N  0.64368792  0.87674505  0.37601323    -0.34400
N167        N  0.63484767  0.88482831  0.40376229    -0.26600
C168        C  0.61657648  0.87244397  0.41193800    -0.01800
C169        C  0.61389916  0.85586643  0.38818738     0.06800
C170        C  0.63127937  0.85899399  0.36577664     0.04900
H171        H  0.60607430  0.87532018  0.43354206     0.10000
H172        H  0.63469165  0.84913922  0.34370663     0.08900
N173        N  0.30068362  0.58517163  0.33468966    -0.25500
N174        N  0.29116349  0.56765549  0.34966325    -0.33400
C175        C  0.27303313  0.56101928  0.33196031     0.02800
C176        C  0.27117156  0.57504809  0.30469913     0.08800
C177        C  0.28887610  0.59015366  0.30708047    -0.04300
H178        H  0.26209199  0.54702331  0.33845983     0.09500
H179        H  0.29292410  0.60373352  0.29005302     0.10700
Cu180      Cu  0.30331372  0.55346283  0.39332084     0.44200
Cu181      Cu  0.32930159  0.60152115  0.35225780     0.42000
Cu182      Cu  0.35349373  0.57935826  0.42818811     0.43900
N183        N  0.31905718  0.54214084  0.43630321    -0.32900
N184        N  0.33739271  0.55162479  0.44899388    -0.27200
C185        C  0.34352789  0.54023880  0.47649045    -0.03300
C186        C  0.32831504  0.52284292  0.48119537     0.08900
C187        C  0.31303325  0.52444351  0.45540218     0.02700
H188        H  0.35805641  0.54425943  0.49172627     0.10400
H189        H  0.29870811  0.51351097  0.45069560     0.09500
N190        N  0.36661396  0.60683476  0.40265865    -0.34400
N191        N  0.35779492  0.61493380  0.37489328    -0.26600
C192        C  0.37015661  0.63275015  0.36471412    -0.01800
C193        C  0.38748151  0.63590048  0.38718333     0.06800
C194        C  0.38482183  0.61927071  0.41090444     0.04900
H195        H  0.36672432  0.64266029  0.34268069     0.10000
H196        H  0.39526811  0.61641961  0.43257012     0.08900
N197        N  0.66132745  0.54671978  0.43816699    -0.25500
N198        N  0.67903476  0.53726451  0.42361225    -0.33400
C199        C  0.68558092  0.51918620  0.44152440     0.02800
C200        C  0.67129383  0.51728840  0.46848418     0.08800
C201        C  0.65612802  0.53491794  0.46571057    -0.04300
H202        H  0.69968243  0.50829557  0.43535735     0.09500
H203        H  0.64235878  0.53891624  0.48242346     0.10700
Cu204      Cu  0.69356098  0.54936671  0.38016209     0.44200
Cu205      Cu  0.64501250  0.57523280  0.42011614     0.42000
Cu206      Cu  0.66764994  0.59921911  0.34430492     0.43900
N207        N  0.70502161  0.56486600  0.33706142    -0.32900
N208        N  0.69551968  0.58307875  0.32399638    -0.27200
C209        C  0.70694341  0.58902376  0.29644123    -0.03300
C210        C  0.72438229  0.57381503  0.29209061     0.08900
C211        C  0.72276931  0.55873138  0.31815204     0.02700
H212        H  0.70289870  0.60340371  0.28089681     0.10400
H213        H  0.73370280  0.54444635  0.32313649     0.09500
N214        N  0.63997337  0.61236464  0.36930830    -0.34400
N215        N  0.63169959  0.60362102  0.39702396    -0.26600
C216        C  0.61379699  0.61598873  0.40683497    -0.01800
C217        C  0.61077317  0.63323758  0.38417730     0.06800
C218        C  0.62756652  0.63052754  0.36072714     0.04900
H219        H  0.60374917  0.61261760  0.42875576     0.10000
H220        H  0.63055395  0.64091440  0.33902639     0.08900
O221        O  0.97631598  0.72256030  0.16283740    -0.71200
O222        O  0.02529763  0.76970864  0.16215606    -0.72200
O223        O  0.97725112  0.77059956  0.16259503    -0.60800
O224        O  0.02436876  0.72167394  0.16249889    -0.69200
O225        O  0.02420068  0.72153293  0.10729961    -0.68800
O226        O  0.97703237  0.77051389  0.10739605    -0.60000
O227        O  0.02508251  0.76957337  0.10695628    -0.72500
O228        O  0.97614649  0.72247178  0.10763776    -0.71300
Cu229      Cu  0.00081605  0.74613941  0.16446818     1.04600
Cu230      Cu  0.00060915  0.74601832  0.10537441     1.04300
C231        C  0.96858372  0.71514929  0.13532341     0.95000
C232        C  0.03283154  0.77701173  0.13443402     0.94100
C233        C  0.96977682  0.77820730  0.13503158     0.86300
C234        C  0.03165002  0.71395389  0.13490473     0.92600
N235        N  0.20051064  0.90702367  0.18341051    -0.25500
N236        N  0.21002513  0.92451560  0.16836920    -0.33400
C237        C  0.22814751  0.93119564  0.18604982     0.02800
C238        C  0.23000850  0.91722231  0.21336922     0.08800
C239        C  0.21231427  0.90210106  0.21104536    -0.04300
H240        H  0.23908382  0.94518347  0.17949462     0.09500
H241        H  0.20827007  0.88855227  0.22812831     0.10700
Cu242      Cu  0.19788275  0.93862615  0.12466033     0.44200
Cu243      Cu  0.17189778  0.89064214  0.16590603     0.42000
Cu244      Cu  0.14770307  0.91271603  0.08989751     0.43900
N245        N  0.18217444  0.94987514  0.08161967    -0.32900
N246        N  0.16383822  0.94037742  0.06895621    -0.27200
C247        C  0.15772859  0.95170241  0.04139504    -0.03300
C248        C  0.17296025  0.96907218  0.03662016     0.08900
C249        C  0.18822478  0.96752274  0.06244080     0.02700
H250        H  0.14320218  0.94766146  0.02616642     0.10400
H251        H  0.20255502  0.97845566  0.06711159     0.09500
N252        N  0.13454603  0.88532339  0.11556963    -0.34400
N253        N  0.14336748  0.87725399  0.14335218    -0.26600
C254        C  0.13097004  0.85948830  0.15362432    -0.01800
C255        C  0.11361944  0.85634205  0.13119862     0.06800
C256        C  0.11630074  0.87291888  0.10740583     0.04900
H257        H  0.13439598  0.84960962  0.17569053     0.10000
H258        H  0.10584571  0.87575371  0.08574456     0.08900
N259        N  0.19474572  0.58243311  0.19933029    -0.25500
N260        N  0.20417160  0.56407660  0.18662692    -0.33400
C261        C  0.22188217  0.55801098  0.20565393     0.02800
C262        C  0.22355278  0.57328788  0.23141894     0.08800
C263        C  0.20618416  0.58854243  0.22676836    -0.04300
H264        H  0.23277976  0.54366444  0.20091241     0.09500
H265        H  0.20222058  0.60308252  0.24199746     0.10700
Cu266      Cu  0.19277252  0.54839514  0.14369055     0.44200
Cu267      Cu  0.16703402  0.59859136  0.17856709     0.42000
Cu268      Cu  0.14480666  0.57451040  0.10260656     0.43900
N269        N  0.17866099  0.53636701  0.09995437    -0.32900
N270        N  0.16118176  0.54593096  0.08495983    -0.27200
C271        C  0.15628807  0.53421772  0.05725292    -0.03300
C272        C  0.17141505  0.51653212  0.05483505     0.08900
C273        C  0.18536081  0.51830421  0.08217353     0.02700
H274        H  0.14276090  0.53832172  0.04017791     0.10400
H275        H  0.19935204  0.50735515  0.08866498     0.09500
N276        N  0.13149087  0.60303501  0.12527134    -0.34400
N277        N  0.13961417  0.61180896  0.15302973    -0.26600
C278        C  0.12726763  0.63008159  0.16124999    -0.01800
C279        C  0.11067215  0.63283360  0.13752162     0.06800
C280        C  0.11374786  0.61549354  0.11507340     0.04900
H281        H  0.13016515  0.64051857  0.18289344     0.10000
H282        H  0.10384679  0.61212601  0.09302902     0.08900
N283        N  0.80635577  0.90934285  0.19963378    -0.25500
N284        N  0.79689264  0.92769485  0.18692882    -0.33400
C285        C  0.77924682  0.93377679  0.20607814     0.02800
C286        C  0.77765908  0.91851814  0.23192182     0.08800
C287        C  0.79500633  0.90325615  0.22719085    -0.04300
H288        H  0.76834374  0.94812985  0.20137698     0.09500
H289        H  0.79902270  0.88873090  0.24245736     0.10700
Cu290      Cu  0.80818238  0.94340809  0.14388978     0.44200
Cu291      Cu  0.83403632  0.89316925  0.17881111     0.42000
Cu292      Cu  0.85622529  0.91737394  0.10291137     0.43900
N293        N  0.82237377  0.95552491  0.10020333    -0.32900
N294        N  0.83988418  0.94598567  0.08526007    -0.27200
C295        C  0.84486352  0.95776569  0.05761048    -0.03300
C296        C  0.82976239  0.97547228  0.05517129     0.08900
C297        C  0.81573950  0.97364195  0.08244154     0.02700
H298        H  0.85843771  0.95369675  0.04059369     0.10400
H299        H  0.80174737  0.98459303  0.08890523     0.09500
N300        N  0.86962757  0.88886480  0.12556162    -0.34400
N301        N  0.86151287  0.88003110  0.15331612    -0.26600
C302        C  0.87392625  0.86179921  0.16155901    -0.01800
C303        C  0.89055759  0.85913960  0.13784606     0.06800
C304        C  0.88743100  0.87649032  0.11538623     0.04900
H305        H  0.87105355  0.85133105  0.18320897     0.10000
H306        H  0.89734060  0.87992364  0.09335089     0.08900
N307        N  0.80108282  0.58538927  0.18795929    -0.25500
N308        N  0.79151217  0.56781688  0.17325942    -0.33400
C309        C  0.77349835  0.56118672  0.19125629     0.02800
C310        C  0.77176759  0.57527499  0.21842896     0.08800
C311        C  0.78942443  0.59041355  0.21568761    -0.04300
H312        H  0.76254290  0.54715977  0.18500708     0.09500
H313        H  0.79353297  0.60405119  0.23254089     0.10700
Cu314      Cu  0.80342997  0.55353334  0.12956994     0.44200
Cu315      Cu  0.82955690  0.60175818  0.16984726     0.42000
Cu316      Cu  0.85335756  0.57935692  0.09379735     0.43900
N317        N  0.81893845  0.54206459  0.08651749    -0.32900
N318        N  0.83719116  0.55152010  0.07348389    -0.27200
C319        C  0.84317010  0.54004851  0.04601332    -0.03300
C320        C  0.82793890  0.52262838  0.04168953     0.08900
C321        C  0.81281131  0.52430311  0.06767773     0.02700
H322        H  0.85759370  0.54403959  0.03052071     0.10400
H323        H  0.79851041  0.51338926  0.07267585     0.09500
N324        N  0.86659450  0.60692164  0.11890931    -0.34400
N325        N  0.85792039  0.61510796  0.14670625    -0.26600
C326        C  0.87036264  0.63292762  0.15659745    -0.01800
C327        C  0.88758861  0.63598809  0.13390927     0.06800
C328        C  0.88478614  0.61930304  0.11035721     0.04900
H329        H  0.86706797  0.64288388  0.17860717     0.10000
H330        H  0.89514039  0.61636161  0.08861884     0.08900
O331        O  0.02491569  0.27002229  0.85775153    -0.71200
O332        O  0.97585791  0.22293415  0.85783831    -0.72200
O333        O  0.97686115  0.27097322  0.85822636    -0.60800
O334        O  0.02391055  0.22198946  0.85724420    -0.69200
O335        O  0.02420186  0.22168360  0.91244188    -0.68800
O336        O  0.97710083  0.27072419  0.91342471    -0.60000
O337        O  0.97615521  0.22268841  0.91303622    -0.72500
O338        O  0.02515160  0.26971438  0.91295010    -0.71300
Cu339      Cu  0.00037733  0.24649083  0.85581694     1.04600
Cu340      Cu  0.00066203  0.24619375  0.91490930     1.04300
C341        C  0.03269339  0.27722075  0.88536031     0.95000
C342        C  0.96835065  0.21545300  0.88547636     0.94100
C343        C  0.96962061  0.27850294  0.88595688     0.86300
C344        C  0.03140990  0.21417721  0.88466894     0.92600
N345        N  0.20072949  0.40668850  0.83499743    -0.25500
N346        N  0.21026925  0.42421566  0.84985741    -0.33400
C347        C  0.22836028  0.43085639  0.83203538     0.02800
C348        C  0.23017558  0.41682137  0.80481347     0.08800
C349        C  0.21248638  0.40170391  0.80734288    -0.04300
H350        H  0.23930130  0.44486600  0.83842164     0.09500
H351        H  0.20840772  0.38812207  0.79037655     0.10700
Cu352      Cu  0.19819278  0.43844062  0.89350564     0.44200
Cu353      Cu  0.17213093  0.39035449  0.85274534     0.42000
Cu354      Cu  0.14809654  0.41255656  0.92872055     0.43900
N355        N  0.18253499  0.44978194  0.93652618    -0.32900
N356        N  0.16423195  0.44029001  0.94934948    -0.27200
C357        C  0.15814185  0.45167974  0.97683651    -0.03300
C358        C  0.17334961  0.46908762  0.98139781     0.08900
C359        C  0.18858307  0.46749152  0.95552897     0.02700
H360        H  0.14364325  0.44765630  0.99215958     0.10400
H361        H  0.20288944  0.47843461  0.95070611     0.09500
N362        N  0.13487640  0.38512392  0.90331168    -0.34400
N363        N  0.14363348  0.37700949  0.87552675    -0.26600
C364        C  0.13118173  0.35925780  0.86540500    -0.01800
C365        C  0.11386478  0.35616800  0.88793390     0.06800
C366        C  0.11662136  0.37276425  0.91162945     0.04900
H367        H  0.13453514  0.34936357  0.84335367     0.10000
H368        H  0.10619605  0.37565837  0.93330801     0.08900
N369        N  0.19422910  0.08257397  0.81844276    -0.25500
N370        N  0.20362999  0.06416149  0.83105528    -0.33400
C371        C  0.22131621  0.05812065  0.81196094     0.02800
C372        C  0.22299847  0.07347132  0.78624960     0.08800
C373        C  0.20566231  0.08874449  0.79099936    -0.04300
H374        H  0.23219328  0.04374252  0.81662539     0.09500
H375        H  0.20171723  0.10333819  0.77583441     0.10700
Cu376      Cu  0.19226460  0.04837152  0.87398203     0.44200
Cu377      Cu  0.16655830  0.09873450  0.83931308     0.42000
Cu378      Cu  0.14448593  0.07456934  0.91536377     0.43900
N379        N  0.17821778  0.03631172  0.91779407    -0.32900
N380        N  0.16081148  0.04591953  0.93290216    -0.27200
C381        C  0.15594312  0.03419121  0.96064067    -0.03300
C382        C  0.17100821  0.01644684  0.96296173     0.08900
C383        C  0.18489527  0.01820159  0.93553385     0.02700
H384        H  0.14247654  0.03832730  0.97780577     0.10400
H385        H  0.19883607  0.00721496  0.92896158     0.09500
N386        N  0.13112274  0.10312035  0.89278454    -0.34400
N387        N  0.13918452  0.11193098  0.86498009    -0.26600
C388        C  0.12682460  0.13022105  0.85684418    -0.01800
C389        C  0.11028517  0.13294189  0.88067861     0.06800
C390        C  0.11340898  0.11556834  0.90309876     0.04900
H391        H  0.12968307  0.14069781  0.83519911     0.10000
H392        H  0.10356747  0.11217808  0.92521365     0.08900
N393        N  0.80071096  0.08559372  0.83534149    -0.25500
N394        N  0.79125852  0.06797294  0.85013886    -0.33400
C395        C  0.77324718  0.06124856  0.83225184     0.02800
C396        C  0.77139232  0.07532822  0.80505006     0.08800
C397        C  0.78897582  0.09055826  0.80765884    -0.04300
H398        H  0.76238232  0.04715863  0.83858811     0.09500
H399        H  0.79299196  0.10420730  0.79073502     0.10700
Cu400      Cu  0.80333537  0.05375929  0.89380848     0.44200
Cu401      Cu  0.82915550  0.10207339  0.85324834     0.42000
Cu402      Cu  0.85315998  0.07986494  0.92935163     0.43900
N403        N  0.81892186  0.04241104  0.93688302    -0.32900
N404        N  0.83712755  0.05197553  0.94984080    -0.27200
C405        C  0.84317783  0.04055657  0.97734934    -0.03300
C406        C  0.82804349  0.02305738  0.98177868     0.08900
C407        C  0.81289769  0.02463026  0.95581201     0.02700
H408        H  0.85759124  0.04463090  0.99278893     0.10400
H409        H  0.79865840  0.01363138  0.95088338     0.09500
N410        N  0.86628685  0.10740551  0.90395818    -0.34400
N411        N  0.85753970  0.11551146  0.87614624    -0.26600
C412        C  0.86995327  0.13330234  0.86600939    -0.01800
C413        C  0.88723721  0.13643157  0.88855068     0.06800
C414        C  0.88449973  0.11981459  0.91227387     0.04900
H415        H  0.86661311  0.14317901  0.84391340     0.10000
H416        H  0.89492698  0.11692242  0.93394723     0.08900
N417        N  0.83923313  0.44553052  0.93831158    -0.25500
N418        N  0.82159798  0.45502604  0.92361972    -0.33400
C419        C  0.81504143  0.47312708  0.94143644     0.02800
C420        C  0.82924683  0.47499323  0.96847689     0.08800
C421        C  0.84437335  0.45732324  0.96584739    -0.04300
H422        H  0.80099581  0.48406036  0.93514339     0.09500
H423        H  0.85808813  0.45330132  0.98264002     0.10700
Cu424      Cu  0.80721073  0.44293816  0.88009832     0.44200
Cu425      Cu  0.85557185  0.41700835  0.92041481     0.42000
Cu426      Cu  0.83325006  0.39307020  0.84448381     0.43900
N427        N  0.79588171  0.42742032  0.83697953    -0.32900
N428        N  0.80542473  0.40921023  0.82400684    -0.27200
C429        C  0.79405841  0.40324734  0.79643550    -0.03300
C430        C  0.77661457  0.41844078  0.79197577     0.08900
C431        C  0.77816597  0.43353266  0.81799218     0.02700
H432        H  0.79813598  0.38885678  0.78096585     0.10400
H433        H  0.76720174  0.44780145  0.82290546     0.09500
N434        N  0.86085127  0.37992542  0.86968932    -0.34400
N435        N  0.86900685  0.38865595  0.89745519    -0.26600
C436        C  0.88690341  0.37632000  0.90738930    -0.01800
C437        C  0.89004870  0.35910276  0.88476061     0.06800
C438        C  0.87333135  0.36179985  0.86119885     0.04900
H439        H  0.89687382  0.37970013  0.92936218     0.10000
H440        H  0.87045437  0.35143790  0.83947228     0.08900
C441        C  0.09655283  0.33912271  0.88701014    -0.16800
C442        C  0.08198241  0.32486212  0.88636980     0.07300
C443        C  0.06486120  0.30821619  0.88576512     0.09200
C444        C  0.05019501  0.29404588  0.88542946    -0.17600
C445        C  0.04823313  0.19667240  0.88422928    -0.16800
C446        C  0.06239447  0.18199895  0.88361571     0.07300
C447        C  0.07902509  0.16486481  0.88271273     0.09200
C448        C  0.09326819  0.15027980  0.88183940    -0.17600
C449        C  0.95086136  0.19861083  0.88561805    -0.16800
C450        C  0.93621061  0.18442248  0.88605011     0.07300
C451        C  0.91910476  0.16775794  0.88679321     0.09200
C452        C  0.90454362  0.15348650  0.88754501    -0.17600
C453        C  0.90728601  0.34196882  0.88543450    -0.16800
C454        C  0.92170252  0.32754376  0.88584537     0.07300
C455        C  0.93850072  0.31056142  0.88615003     0.09200
C456        C  0.95275547  0.29597122  0.88621239    -0.17600
C457        C  0.82810535  0.50591862  0.01579648    -0.11500
C458        C  0.82849678  0.49185413  0.99413659    -0.13100
C459        C  0.82884764  0.99230740  0.02944147    -0.11500
C460        C  0.82832974  0.00635572  0.00772648    -0.13100
C461        C  0.17242467  0.49976269  0.02906918    -0.11500
C462        C  0.17301751  0.48575449  0.00734287    -0.13100
C463        C  0.17202904  0.99966493  0.98875303    -0.11500
C464        C  0.17262031  0.98567870  0.01054730    -0.13100
C465        C  0.05027678  0.79389357  0.13412218    -0.16800
C466        C  0.06487155  0.80813595  0.13366337     0.07300
C467        C  0.08189602  0.82487908  0.13296137     0.09200
C468        C  0.09638683  0.83921922  0.13223930    -0.17600
C469        C  0.90767875  0.84189639  0.13686170    -0.16800
C470        C  0.92200131  0.82738289  0.13617423     0.07300
C471        C  0.93870994  0.81031653  0.13552685     0.09200
C472        C  0.95291929  0.79568407  0.13515746    -0.17600
C473        C  0.04850101  0.69647238  0.13496033    -0.16800
C474        C  0.06268842  0.68181903  0.13527453     0.07300
C475        C  0.07935094  0.66470859  0.13586746     0.09200
C476        C  0.09362113  0.65014405  0.13652841    -0.17600
C477        C  0.95111427  0.69828679  0.13547831    -0.16800
C478        C  0.93648181  0.68407735  0.13535541     0.07300
C479        C  0.91940162  0.66738147  0.13500587     0.09200
C480        C  0.90486488  0.65307993  0.13457922    -0.17600
C481        C  0.74103870  0.57396857  0.26608579    -0.11500
C482        C  0.75502783  0.57441586  0.24429032    -0.13100
C483        C  0.25431294  0.57413123  0.27902502    -0.11500
C484        C  0.24025282  0.57360058  0.25734623    -0.13100
C485        C  0.74705093  0.91767746  0.27977265    -0.11500
C486        C  0.76104806  0.91822279  0.25799055    -0.13100
C487        C  0.59656877  0.83883968  0.38705561    -0.16800
C488        C  0.58198165  0.82459748  0.38621451     0.07300
C489        C  0.56483514  0.80797611  0.38539385     0.09200
C490        C  0.55014609  0.79382771  0.38492111    -0.17600
C491        C  0.45081162  0.69838099  0.38465398    -0.16800
C492        C  0.43619581  0.68415628  0.38497681     0.07300
C493        C  0.41916329  0.66741573  0.38557582     0.09200
C494        C  0.40468381  0.65306020  0.38622748    -0.17600
C495        C  0.54823520  0.69653170  0.38547525    -0.16800
C496        C  0.56247677  0.68192990  0.38541136     0.07300
C497        C  0.57923345  0.66490865  0.38512560     0.09200
C498        C  0.59359982  0.65043460  0.38476143    -0.17600
C499        C  0.24686923  0.91819451  0.23902910    -0.11500
C500        C  0.26095180  0.91876809  0.26067008    -0.13100
C501        C  0.45268528  0.79575930  0.38346858    -0.16800
C502        C  0.43851227  0.81042241  0.38285710     0.07300
C503        C  0.42188804  0.82756468  0.38198479     0.09200
C504        C  0.40766545  0.84217218  0.38117054    -0.17600
C505        C  0.75997810  0.41824785  0.76595660    -0.11500
C506        C  0.74598026  0.41778977  0.74418687    -0.10300
C507        C  0.67246306  0.48638930  0.51591896    -0.11500
C508        C  0.67203865  0.50045145  0.49422049    -0.13100
C509        C  0.26100573  0.41830095  0.75730319    -0.11500
C510        C  0.24697499  0.41775565  0.77903810    -0.13100
C511        C  0.32866858  0.50618250  0.50719870    -0.11500
C512        C  0.32922661  0.49215603  0.52894211    -0.13100
C513        C  0.74064284  0.07379386  0.75747451    -0.11500
C514        C  0.75463474  0.07435343  0.77924359    -0.13100
C515        C  0.67235663  0.99952741  0.52967218    -0.11500
C516        C  0.67287981  0.98547036  0.50800774    -0.13100
C517        C  0.45280983  0.29533128  0.63538092    -0.16800
C518        C  0.43862874  0.30998926  0.63573229     0.07300
C519        C  0.42197882  0.32710987  0.63634746     0.09200
C520        C  0.40772202  0.34168672  0.63698567    -0.17600
C521        C  0.54832323  0.19606232  0.63545617    -0.16800
C522        C  0.56253675  0.18143473  0.63582937     0.07300
C523        C  0.57925240  0.16437667  0.63647790     0.09200
C524        C  0.59358061  0.14986908  0.63715087    -0.17600
C525        C  0.55020879  0.29343787  0.63586640    -0.16800
C526        C  0.56483922  0.30764989  0.63570155     0.07300
C527        C  0.58189745  0.32436866  0.63527297     0.09200
C528        C  0.59639988  0.33870513  0.63477528    -0.17600
C529        C  0.25375070  0.07437124  0.73860200    -0.11500
C530        C  0.23968563  0.07382809  0.76028879    -0.13100
C531        C  0.32830834  0.00648680  0.51062740    -0.11500
C532        C  0.32892423  0.99249753  0.48887887    -0.13100
C533        C  0.45091817  0.19796722  0.63433532    -0.16800
C534        C  0.43628136  0.18377122  0.63375987     0.07300
C535        C  0.41920584  0.16708556  0.63289451     0.09200
C536        C  0.40467255  0.15279300  0.63206073    -0.17600
loop_ 
_geom_bond_atom_site_label_1 
_geom_bond_atom_site_label_2 
_geom_bond_distance 
_geom_bond_site_symmetry_2 
_ccdc_geom_bond_type 
N1            N2   1.323       .  A
N1            C5   1.345       .  A
N1           Cu9   2.073       .  S
N2            C3   1.346       .  A
N2           Cu8   2.076       .  S
C3            C4   1.380       .  A
C3            H6   1.082       .  S
C4            C5   1.379       .  A
C4          C529   1.437       .  S
C5            H7   1.082       .  S
Cu8          N11   2.076       .  S
Cu9          N19   2.073       .  S
Cu10         N12   2.072       .  S
Cu10         N18   2.072       .  S
N11          N12   1.323       .  A
N11          C15   1.346       .  A
N12          C13   1.345       .  A
C13          C14   1.379       .  A
C13          H16   1.082       .  S
C14          C15   1.380       .  A
C14         C531   1.437       .  S
C15          H17   1.082       .  S
N18          N19   1.323       .  A
N18          C22   1.345       .  A
N19          C20   1.345       .  A
C20          C21   1.379       .  A
C20          H23   1.082       .  S
C21          C22   1.379       .  A
C21         C536   1.437       .  S
C22          H24   1.082       .  S
O25         Cu33   2.011       .  S
O25          C35   1.277       .  A
O26         Cu33   2.011       .  S
O26          C36   1.277       .  A
O27         Cu33   2.009       .  S
O27          C37   1.276       .  A
O28         Cu33   2.009       .  S
O28          C38   1.276       .  A
O29         Cu34   2.011       .  S
O29          C38   1.277       .  A
O30         Cu34   2.011       .  S
O30          C37   1.277       .  A
O31         Cu34   2.009       .  S
O31          C36   1.276       .  A
O32         Cu34   2.009       .  S
O32          C35   1.276       .  A
Cu33        Cu34   2.380       .  S
C35         C517   1.435       .  S
C36         C521   1.435       .  S
C37         C533   1.435       .  S
C38         C525   1.435       .  S
N39          N40   1.323       .  A
N39          C43   1.345       .  A
N39         Cu47   2.073       .  S
N40          C41   1.346       .  A
N40         Cu46   2.075       .  S
C41          C42   1.380       .  A
C41          H44   1.082       .  S
C42          C43   1.379       .  A
C42         C515   1.437   1_545  S
C43          H45   1.082       .  S
Cu46         N49   2.076       .  S
Cu47         N57   2.073       .  S
Cu48         N50   2.072       .  S
Cu48         N56   2.072       .  S
N49          N50   1.323       .  A
N49          C53   1.346       .  A
N50          C51   1.345       .  A
C51          C52   1.379       .  A
C51          H54   1.082       .  S
C52          C53   1.380       .  A
C52         C513   1.437       .  S
C53          H55   1.082       .  S
N56          N57   1.323       .  A
N56          C60   1.345       .  A
N57          C58   1.345       .  A
C58          C59   1.379       .  A
C58          H61   1.082       .  S
C59          C60   1.379       .  A
C59         C524   1.437       .  S
C60          H62   1.082       .  S
N63          N64   1.323       .  A
N63          C67   1.345       .  A
N63         Cu71   2.073       .  S
N64          C65   1.346       .  A
N64         Cu70   2.075       .  S
C65          C66   1.380       .  A
C65          H68   1.082       .  S
C66          C67   1.379       .  A
C66         C512   1.437       .  S
C67          H69   1.082       .  S
Cu70         N73   2.075       .  S
Cu71         N81   2.073       .  S
Cu72         N74   2.072       .  S
Cu72         N80   2.072       .  S
N73          N74   1.323       .  A
N73          C77   1.346       .  A
N74          C75   1.345       .  A
C75          C76   1.379       .  A
C75          H78   1.082       .  S
C76          C77   1.380       .  A
C76         C509   1.437       .  S
C77          H79   1.082       .  S
N80          N81   1.323       .  A
N80          C84   1.345       .  A
N81          C82   1.345       .  A
C82          C83   1.379       .  A
C82          H85   1.082       .  S
C83          C84   1.379       .  A
C83         C520   1.437       .  S
C84          H86   1.082       .  S
N87          N88   1.323       .  A
N87          C91   1.345       .  A
N87         Cu95   2.073       .  S
N88          C89   1.346       .  A
N88         Cu94   2.075       .  S
C89          C90   1.380       .  A
C89          H92   1.082       .  S
C90          C91   1.379       .  A
C90         C506   1.437       .  S
C91          H93   1.082       .  S
Cu94         N97   2.075       .  S
Cu95        N105   2.073       .  S
Cu96         N98   2.072       .  S
Cu96        N104   2.072       .  S
N97          N98   1.323       .  A
N97         C101   1.346       .  A
N98          C99   1.345       .  A
C99         C100   1.379       .  A
C99         H102   1.082       .  S
C100        C101   1.380       .  A
C100        C507   1.437       .  S
C101        H103   1.082       .  S
N104        N105   1.323       .  A
N104        C108   1.345       .  A
N105        C106   1.345       .  A
C106        C107   1.379       .  A
C106        H109   1.082       .  S
C107        C108   1.379       .  A
C107        C528   1.437       .  S
C108        H110   1.082       .  S
N111        N112   1.323       .  A
N111        C115   1.345       .  A
N111       Cu119   2.073       .  S
N112        C113   1.346       .  A
N112       Cu118   2.075       .  S
C113        C114   1.379       .  A
C113        H116   1.082       .  S
C114        C115   1.379       .  A
C114        C532   1.437       .  S
C115        H117   1.082       .  S
Cu118       N121   2.075       .  S
Cu119       N129   2.073       .  S
Cu120       N122   2.072       .  S
Cu120       N128   2.072       .  S
N121        N122   1.323       .  A
N121        C125   1.346       .  A
N122        C123   1.345       .  A
C123        C124   1.379       .  A
C123        H126   1.082       .  S
C124        C125   1.380       .  A
C124        C500   1.437       .  S
C125        H127   1.082       .  S
N128        N129   1.323       .  A
N128        C132   1.345       .  A
N129        C130   1.345       .  A
C130        C131   1.379       .  A
C130        H133   1.082       .  S
C131        C132   1.379       .  A
C131        C504   1.437       .  S
C132        H134   1.082       .  S
O135       Cu143   2.011       .  S
O135        C145   1.277       .  A
O136       Cu143   2.011       .  S
O136        C146   1.277       .  A
O137       Cu143   2.009       .  S
O137        C147   1.276       .  A
O138       Cu143   2.009       .  S
O138        C148   1.276       .  A
O139       Cu144   2.012       .  S
O139        C148   1.277       .  A
O140       Cu144   2.011       .  S
O140        C147   1.277       .  A
O141       Cu144   2.009       .  S
O141        C146   1.276       .  A
O142       Cu144   2.009       .  S
O142        C145   1.276       .  A
Cu143      Cu144   2.380       .  S
C145        C495   1.435       .  S
C146        C501   1.435       .  S
C147        C491   1.435       .  S
C148        C490   1.435       .  S
N149        N150   1.323       .  A
N149        C153   1.345       .  A
N149       Cu157   2.072       .  S
N150        C151   1.346       .  A
N150       Cu156   2.076       .  S
C151        C152   1.380       .  A
C151        H154   1.082       .  S
C152        C153   1.379       .  A
C152        C516   1.437       .  S
C153        H155   1.082       .  S
Cu156       N159   2.075       .  S
Cu157       N167   2.073       .  S
Cu158       N160   2.073       .  S
Cu158       N166   2.073       .  S
N159        N160   1.323       .  A
N159        C163   1.346       .  A
N160        C161   1.345       .  A
C161        C162   1.379       .  A
C161        H164   1.082       .  S
C162        C163   1.380       .  A
C162        C485   1.437       .  S
C163        H165   1.082       .  S
N166        N167   1.323       .  A
N166        C170   1.345       .  A
N167        C168   1.345       .  A
C168        C169   1.379       .  A
C168        H171   1.082       .  S
C169        C170   1.379       .  A
C169        C487   1.437       .  S
C170        H172   1.082       .  S
N173        N174   1.323       .  A
N173        C177   1.345       .  A
N173       Cu181   2.073       .  S
N174        C175   1.346       .  A
N174       Cu180   2.076       .  S
C175        C176   1.380       .  A
C175        H178   1.082       .  S
C176        C177   1.379       .  A
C176        C483   1.437       .  S
C177        H179   1.082       .  S
Cu180       N183   2.076       .  S
Cu181       N191   2.073       .  S
Cu182       N184   2.072       .  S
Cu182       N190   2.072       .  S
N183        N184   1.323       .  A
N183        C187   1.346       .  A
N184        C185   1.345       .  A
C185        C186   1.379       .  A
C185        H188   1.082       .  S
C186        C187   1.380       .  A
C186        C511   1.437       .  S
C187        H189   1.082       .  S
N190        N191   1.323       .  A
N190        C194   1.345       .  A
N191        C192   1.345       .  A
C192        C193   1.379       .  A
C192        H195   1.082       .  S
C193        C194   1.379       .  A
C193        C494   1.437       .  S
C194        H196   1.082       .  S
N197        N198   1.323       .  A
N197        C201   1.345       .  A
N197       Cu205   2.073       .  S
N198        C199   1.346       .  A
N198       Cu204   2.075       .  S
C199        C200   1.380       .  A
C199        H202   1.082       .  S
C200        C201   1.379       .  A
C200        C508   1.437       .  S
C201        H203   1.082       .  S
Cu204       N207   2.075       .  S
Cu205       N215   2.073       .  S
Cu206       N208   2.072       .  S
Cu206       N214   2.072       .  S
N207        N208   1.323       .  A
N207        C211   1.346       .  A
N208        C209   1.345       .  A
C209        C210   1.379       .  A
C209        H212   1.082       .  S
C210        C211   1.380       .  A
C210        C481   1.437       .  S
C211        H213   1.082       .  S
N214        N215   1.323       .  A
N214        C218   1.345       .  A
N215        C216   1.345       .  A
C216        C217   1.379       .  A
C216        H219   1.082       .  S
C217        C218   1.379       .  A
C217        C498   1.437       .  S
C218        H220   1.082       .  S
O221       Cu229   2.011   1_655  S
O221        C231   1.277       .  A
O222       Cu229   2.011       .  S
O222        C232   1.277       .  A
O223       Cu229   2.009   1_655  S
O223        C233   1.276       .  A
O224       Cu229   2.009       .  S
O224        C234   1.276       .  A
O225       Cu230   2.011       .  S
O225        C234   1.277       .  A
O226       Cu230   2.011   1_655  S
O226        C233   1.277       .  A
O227       Cu230   2.009       .  S
O227        C232   1.276       .  A
O228       Cu230   2.009   1_655  S
O228        C231   1.276       .  A
Cu229      Cu230   2.380       .  S
C231        C477   1.435       .  S
C232        C465   1.435       .  S
C233        C472   1.435       .  S
C234        C473   1.435       .  S
N235        N236   1.323       .  A
N235        C239   1.345       .  A
N235       Cu243   2.073       .  S
N236        C237   1.346       .  A
N236       Cu242   2.075       .  S
C237        C238   1.380       .  A
C237        H240   1.082       .  S
C238        C239   1.379       .  A
C238        C499   1.437       .  S
C239        H241   1.082       .  S
Cu242       N245   2.075       .  S
Cu243       N253   2.073       .  S
Cu244       N246   2.072       .  S
Cu244       N252   2.072       .  S
N245        N246   1.323       .  A
N245        C249   1.346       .  A
N246        C247   1.345       .  A
C247        C248   1.379       .  A
C247        H250   1.082       .  S
C248        C249   1.380       .  A
C248        C464   1.437       .  S
C249        H251   1.082       .  S
N252        N253   1.323       .  A
N252        C256   1.345       .  A
N253        C254   1.345       .  A
C254        C255   1.379       .  A
C254        H257   1.082       .  S
C255        C256   1.379       .  A
C255        C468   1.437       .  S
C256        H258   1.082       .  S
N259        N260   1.323       .  A
N259        C263   1.345       .  A
N259       Cu267   2.072       .  S
N260        C261   1.346       .  A
N260       Cu266   2.075       .  S
C261        C262   1.380       .  A
C261        H264   1.082       .  S
C262        C263   1.379       .  A
C262        C484   1.437       .  S
C263        H265   1.082       .  S
Cu266       N269   2.075       .  S
Cu267       N277   2.072       .  S
Cu268       N270   2.073       .  S
Cu268       N276   2.073       .  S
N269        N270   1.323       .  A
N269        C273   1.346       .  A
N270        C271   1.345       .  A
C271        C272   1.379       .  A
C271        H274   1.082       .  S
C272        C273   1.380       .  A
C272        C461   1.437       .  S
C273        H275   1.082       .  S
N276        N277   1.323       .  A
N276        C280   1.346       .  A
N277        C278   1.345       .  A
C278        C279   1.379       .  A
C278        H281   1.082       .  S
C279        C280   1.379       .  A
C279        C476   1.437       .  S
C280        H282   1.082       .  S
N283        N284   1.323       .  A
N283        C287   1.345       .  A
N283       Cu291   2.072       .  S
N284        C285   1.346       .  A
N284       Cu290   2.076       .  S
C285        C286   1.380       .  A
C285        H288   1.082       .  S
C286        C287   1.379       .  A
C286        C486   1.437       .  S
C287        H289   1.082       .  S
Cu290       N293   2.076       .  S
Cu291       N301   2.072       .  S
Cu292       N294   2.073       .  S
Cu292       N300   2.073       .  S
N293        N294   1.323       .  A
N293        C297   1.346       .  A
N294        C295   1.345       .  A
C295        C296   1.379       .  A
C295        H298   1.082       .  S
C296        C297   1.380       .  A
C296        C459   1.437       .  S
C297        H299   1.082       .  S
N300        N301   1.323       .  A
N300        C304   1.345       .  A
N301        C302   1.345       .  A
C302        C303   1.379       .  A
C302        H305   1.082       .  S
C303        C304   1.379       .  A
C303        C469   1.437       .  S
C304        H306   1.082       .  S
N307        N308   1.323       .  A
N307        C311   1.345       .  A
N307       Cu315   2.073       .  S
N308        C309   1.346       .  A
N308       Cu314   2.075       .  S
C309        C310   1.380       .  A
C309        H312   1.082       .  S
C310        C311   1.379       .  A
C310        C482   1.437       .  S
C311        H313   1.082       .  S
Cu314       N317   2.075       .  S
Cu315       N325   2.073       .  S
Cu316       N318   2.072       .  S
Cu316       N324   2.072       .  S
N317        N318   1.323       .  A
N317        C321   1.346       .  A
N318        C319   1.345       .  A
C319        C320   1.379       .  A
C319        H322   1.082       .  S
C320        C321   1.380       .  A
C320        C457   1.437       .  S
C321        H323   1.082       .  S
N324        N325   1.323       .  A
N324        C328   1.345       .  A
N325        C326   1.346       .  A
C326        C327   1.379       .  A
C326        H329   1.082       .  S
C327        C328   1.379       .  A
C327        C480   1.437       .  S
C328        H330   1.082       .  S
O331       Cu339   2.011       .  S
O331        C341   1.277       .  A
O332       Cu339   2.011   1_655  S
O332        C342   1.277       .  A
O333       Cu339   2.009   1_655  S
O333        C343   1.276       .  A
O334       Cu339   2.009       .  S
O334        C344   1.276       .  A
O335       Cu340   2.011       .  S
O335        C344   1.277       .  A
O336       Cu340   2.011   1_655  S
O336        C343   1.277       .  A
O337       Cu340   2.009   1_655  S
O337        C342   1.276       .  A
O338       Cu340   2.009       .  S
O338        C341   1.276       .  A
Cu339      Cu340   2.380       .  S
C341        C444   1.435       .  S
C342        C449   1.435       .  S
C343        C456   1.435       .  S
C344        C445   1.435       .  S
N345        N346   1.323       .  A
N345        C349   1.345       .  A
N345       Cu353   2.073       .  S
N346        C347   1.346       .  A
N346       Cu352   2.076       .  S
C347        C348   1.380       .  A
C347        H350   1.082       .  S
C348        C349   1.379       .  A
C348        C510   1.437       .  S
C349        H351   1.082       .  S
Cu352       N355   2.076       .  S
Cu353       N363   2.073       .  S
Cu354       N356   2.072       .  S
Cu354       N362   2.072       .  S
N355        N356   1.323       .  A
N355        C359   1.346       .  A
N356        C357   1.345       .  A
C357        C358   1.379       .  A
C357        H360   1.082       .  S
C358        C359   1.380       .  A
C358        C462   1.437   1_556  S
C359        H361   1.082       .  S
N362        N363   1.323       .  A
N362        C366   1.345       .  A
N363        C364   1.345       .  A
C364        C365   1.379       .  A
C364        H367   1.082       .  S
C365        C366   1.379       .  A
C365        C441   1.437       .  S
C366        H368   1.082       .  S
N369        N370   1.323       .  A
N369        C373   1.345       .  A
N369       Cu377   2.072       .  S
N370        C371   1.346       .  A
N370       Cu376   2.075       .  S
C371        C372   1.380       .  A
C371        H374   1.082       .  S
C372        C373   1.379       .  A
C372        C530   1.437       .  S
C373        H375   1.082       .  S
Cu376       N379   2.075       .  S
Cu377       N387   2.072       .  S
Cu378       N380   2.073       .  S
Cu378       N386   2.073       .  S
N379        N380   1.323       .  A
N379        C383   1.346       .  A
N380        C381   1.345       .  A
C381        C382   1.379       .  A
C381        H384   1.082       .  S
C382        C383   1.380       .  A
C382        C463   1.437   1_545  S
C383        H385   1.082       .  S
N386        N387   1.323       .  A
N386        C390   1.345       .  A
N387        C388   1.345       .  A
C388        C389   1.379       .  A
C388        H391   1.082       .  S
C389        C390   1.379       .  A
C389        C448   1.437       .  S
C390        H392   1.082       .  S
N393        N394   1.323       .  A
N393        C397   1.345       .  A
N393       Cu401   2.073       .  S
N394        C395   1.346       .  A
N394       Cu400   2.075       .  S
C395        C396   1.380       .  A
C395        H398   1.082       .  S
C396        C397   1.379       .  A
C396        C514   1.437       .  S
C397        H399   1.082       .  S
Cu400       N403   2.075       .  S
Cu401       N411   2.073       .  S
Cu402       N404   2.072       .  S
Cu402       N410   2.072       .  S
N403        N404   1.323       .  A
N403        C407   1.346       .  A
N404        C405   1.345       .  A
C405        C406   1.379       .  A
C405        H408   1.082       .  S
C406        C407   1.380       .  A
C406        C460   1.437   1_556  S
C407        H409   1.082       .  S
N410        N411   1.323       .  A
N410        C414   1.345       .  A
N411        C412   1.345       .  A
C412        C413   1.379       .  A
C412        H415   1.082       .  S
C413        C414   1.379       .  A
C413        C452   1.437       .  S
C414        H416   1.082       .  S
N417        N418   1.323       .  A
N417        C421   1.345       .  A
N417       Cu425   2.073       .  S
N418        C419   1.346       .  A
N418       Cu424   2.076       .  S
C419        C420   1.380       .  A
C419        H422   1.082       .  S
C420        C421   1.379       .  A
C420        C458   1.437       .  S
C421        H423   1.082       .  S
Cu424       N427   2.076       .  S
Cu425       N435   2.073       .  S
Cu426       N428   2.072       .  S
Cu426       N434   2.072       .  S
N427        N428   1.323       .  A
N427        C431   1.346       .  A
N428        C429   1.345       .  A
C429        C430   1.379       .  A
C429        H432   1.082       .  S
C430        C431   1.380       .  A
C430        C505   1.437       .  S
C431        H433   1.082       .  S
N434        N435   1.323       .  A
N434        C438   1.345       .  A
N435        C436   1.345       .  A
C436        C437   1.379       .  A
C436        H439   1.082       .  S
C437        C438   1.379       .  A
C437        C453   1.437       .  S
C438        H440   1.082       .  S
C441        C442   1.205       .  T
C442        C443   1.412       .  S
C443        C444   1.206       .  T
C445        C446   1.206       .  T
C446        C447   1.412       .  S
C447        C448   1.206       .  T
C449        C450   1.206       .  T
C450        C451   1.412       .  S
C451        C452   1.206       .  T
C453        C454   1.206       .  T
C454        C455   1.412       .  S
C455        C456   1.206       .  T
C457        C458   1.206   1_554  T
C459        C460   1.206   1_565  T
C461        C462   1.206       .  T
C463        C464   1.206   1_556  T
C465        C466   1.206       .  T
C466        C467   1.412       .  S
C467        C468   1.205       .  T
C469        C470   1.206       .  T
C470        C471   1.412       .  S
C471        C472   1.206       .  T
C473        C474   1.206       .  T
C474        C475   1.412       .  S
C475        C476   1.206       .  T
C477        C478   1.206       .  T
C478        C479   1.412       .  S
C479        C480   1.206       .  T
C481        C482   1.206       .  T
C483        C484   1.206       .  T
C485        C486   1.206       .  T
C487        C488   1.206       .  T
C488        C489   1.412       .  S
C489        C490   1.206       .  T
C491        C492   1.206       .  T
C492        C493   1.412       .  S
C493        C494   1.206       .  T
C495        C496   1.206       .  T
C496        C497   1.412       .  S
C497        C498   1.206       .  T
C499        C500   1.206       .  T
C501        C502   1.206       .  T
C502        C503   1.412       .  S
C503        C504   1.206       .  T
C505        C506   1.206       .  T
C507        C508   1.206       .  T
C509        C510   1.206       .  T
C511        C512   1.206       .  T
C513        C514   1.206       .  T
C515        C516   1.206       .  T
C517        C518   1.206       .  T
C518        C519   1.412       .  S
C519        C520   1.205       .  T
C521        C522   1.206       .  T
C522        C523   1.412       .  S
C523        C524   1.206       .  T
C525        C526   1.206       .  T
C526        C527   1.412       .  S
C527        C528   1.206       .  T
C529        C530   1.206       .  T
C531        C532   1.206   1_545  T
C533        C534   1.206       .  T
C534        C535   1.412       .  S
C535        C536   1.205       .  T
