geometry optimzed in LAMMPS
_audit_creation_date              2020-11-30 
_audit_creation_method            'lammps2cif' 
_symmetry_space_group_name_H-M    'P1' 
_symmetry_Int_Tables_number       1 
_symmetry_cell_setting            triclinic 
loop_ 
_symmetry_equiv_pos_as_xyz 
  x,y,z 
_cell_length_a                    49.0384975 
_cell_length_b                    49.04827493210951 
_cell_length_c                    27.908546411674873 
_cell_angle_alpha                 90.01405666480177 
_cell_angle_beta                  90.00124626350807 
_cell_angle_gamma                 120.13358422110954 
loop_ 
_atom_site_label 
_atom_site_type_symbol 
_atom_site_fract_x 
_atom_site_fract_y 
_atom_site_fract_z 
_atom_site_charge 
Fe1        Fe  0.29570373  0.17202247  0.74972406     1.65800
Fe2        Fe  0.32746284  0.12353155  0.74961835     1.73200
Fe3        Fe  0.37612450  0.20394962  0.74968504     1.54400
O4          O  0.36569791  0.22662672  0.69671593    -0.79400
O5          O  0.36069619  0.13401433  0.80248389    -0.77700
O6          O  0.31348165  0.20598643  0.69682350    -0.81900
O7          O  0.31346995  0.20589043  0.80278657    -0.76700
O8          O  0.39229653  0.18623292  0.69671232    -0.78500
O9          O  0.29358736  0.10732774  0.80268242    -0.81200
C10         C  0.34075541  0.22508506  0.81850346     0.99500
C11         C  0.34074903  0.22511897  0.68099317     1.07000
O12         O  0.33309900  0.16650247  0.74967645    -1.10200
O13         O  0.29348661  0.10731419  0.69668175    -0.72700
O14         O  0.27295771  0.13889494  0.69669629    -0.76100
O15         O  0.36570327  0.22666182  0.80262891    -0.76800
C16         C  0.27439885  0.11544659  0.68089198     0.98400
O17         O  0.27293266  0.13879920  0.80260049    -0.74800
O18         O  0.36059541  0.13401487  0.69660867    -0.80000
C19         C  0.38416076  0.15897452  0.81833823     1.01000
C20         C  0.38411005  0.15897437  0.68088679     1.07000
O21         O  0.39228286  0.18624978  0.80268363    -0.75600
C22         C  0.27444330  0.11539835  0.81843374     1.05300
C23         C  0.33694637  0.35757728  0.02779706     0.82500
N24         N  0.33339593  0.33340554  0.99977129    -0.75800
C25         C  0.35756198  0.33695608  0.97173287     0.85000
N26         N  0.38527755  0.36469053  0.97167298    -0.75700
C27         C  0.38884590  0.38886709  0.99974486     0.85100
N28         N  0.36467520  0.38529860  0.02782982    -0.77400
C29         C  0.02754142  0.49989043  0.99996242     0.82500
N30         N  0.49980615  0.47217159  0.99997928    -0.75800
C31         C  0.47211409  0.47213280  0.99969565     0.85000
N32         N  0.47215781  0.49982253  0.99939078    -0.75700
C33         C  0.49989921  0.02754950  0.99935651     0.85100
N34         N  0.02759191  0.02758051  0.99964448    -0.77400
C35         C  0.47927498  0.14183775  0.97097862     0.82500
N36         N  0.47929544  0.11417713  0.97085010    -0.75800
C37         C  0.99991558  0.11066588  0.99895799     0.85000
N38         N  0.02051597  0.13483304  0.02715259    -0.75700
C39         C  0.02051892  0.16250117  0.02718758     0.85100
N40         N  0.99989149  0.16599259  0.99912866    -0.77400
C41         C  0.14185468  0.47926029  0.02824389     0.82500
N42         N  0.16601878  0.99987015  0.00009704    -0.75800
C43         C  0.16251384  0.02048709  0.97204827     0.85000
N44         N  0.13483934  0.02048218  0.97209644    -0.75700
C45         C  0.11067925  0.99989095  0.00029014     0.85100
N46         N  0.11418787  0.47927956  0.02838477    -0.77400
Fe47       Fe  0.17195688  0.29576319  0.24968841     1.65800
Fe48       Fe  0.12345873  0.32751812  0.24964441     1.73200
Fe49       Fe  0.20389455  0.37616776  0.24971748     1.54400
O50         O  0.22655532  0.36575260  0.30273864    -0.79400
O51         O  0.13397060  0.36072513  0.19675693    -0.77700
O52         O  0.20588967  0.31354402  0.30266406    -0.81900
O53         O  0.20586678  0.31351653  0.19669959    -0.76700
O54         O  0.18615487  0.39234565  0.30264221    -0.78500
O55         O  0.10727250  0.29362638  0.19658694    -0.81200
C56         C  0.22506385  0.34079092  0.18098308     0.99500
C57         C  0.22502764  0.34081010  0.31849837     1.05600
O58         O  0.16643772  0.33315175  0.24968326    -1.10200
O59         O  0.10721185  0.29356722  0.30258962    -0.72700
O60         O  0.13878632  0.27302801  0.30264621    -0.76100
O61         O  0.22662818  0.36573740  0.19682424    -0.76800
C62         C  0.11533009  0.27447747  0.31840358     0.98400
O63         O  0.13876365  0.27299125  0.19674543    -0.74800
O64         O  0.13392344  0.36066719  0.30263360    -0.80000
C65         C  0.15894382  0.38418709  0.18095046     1.01000
C66         C  0.15888310  0.38417375  0.31840063     1.07000
O67         O  0.18621500  0.39231627  0.19667439    -0.75600
C68         C  0.11535967  0.27448931  0.18086532     1.05300
C69         C  0.33685353  0.35755673  0.47178171     0.82500
N70         N  0.33331168  0.33339951  0.49981295    -0.75800
C71         C  0.35749151  0.33696043  0.52783437     0.85000
N72         N  0.38521187  0.36469092  0.52786846    -0.75700
C73         C  0.38877059  0.38885246  0.49979005     0.85100
N74         N  0.36458647  0.38527311  0.47172364    -0.77400
C75         C  0.02745537  0.49991100  0.49928471     0.82500
N76         N  0.02747129  0.02759267  0.49951483    -0.75800
C77         C  0.49977078  0.02754483  0.49981874     0.85000
N78         N  0.47205540  0.49980937  0.49988963    -0.75700
C79         C  0.47202879  0.47212797  0.49965699     0.85100
N80         N  0.49972918  0.47218344  0.49935659    -0.77400
C81         C  0.47914903  0.14184341  0.52808747     0.82500
N82         N  0.47915789  0.11417730  0.52820409    -0.75800
C83         C  0.49977100  0.11065249  0.50009759     0.85000
N84         N  0.02037711  0.13481199  0.47192086    -0.75700
C85         C  0.02039149  0.16248632  0.47189779     0.85100
N86         N  0.99977075  0.16599093  0.49995526    -0.77400
C87         C  0.14178593  0.47930812  0.47104193     0.82500
N88         N  0.16593292  0.99993235  0.49919052    -0.75800
C89         C  0.16243023  0.02056512  0.52722022     0.85000
N90         N  0.13475530  0.02055894  0.52715601    -0.75700
C91         C  0.11059261  0.99995036  0.49896178     0.85100
N92         N  0.11411857  0.47932506  0.47088443    -0.77400
C93         C  0.05673845  0.99994961  0.49902399    -0.11000
C94         C  0.08132179  0.99994290  0.49891599    -0.12500
C95         C  0.49976482  0.08138708  0.50012095    -0.11000
C96         C  0.49978165  0.05681334  0.50002584    -0.12500
C97         C  0.41808891  0.41816868  0.49976830    -0.11000
C98         C  0.44271548  0.44280367  0.49972570    -0.12500
C99         C  0.09648629  0.25273928  0.35516629    -0.16200
C100        C  0.07985723  0.23313838  0.38402537     0.07900
C101        C  0.05967635  0.20906893  0.41584241     0.09700
C102        C  0.04196180  0.18794312  0.44183343    -0.17000
C103        C  0.15597460  0.40303709  0.35506179    -0.16200
C104        C  0.15298515  0.41971016  0.38375236     0.07900
C105        C  0.14907025  0.43994601  0.41533251     0.09700
C106        C  0.14564632  0.45769793  0.44113483    -0.17000
C107        C  0.24672818  0.34371097  0.35528223    -0.16200
C108        C  0.26627165  0.34658904  0.38413718     0.07900
C109        C  0.29027579  0.35033438  0.41591765     0.09700
C110        C  0.31137374  0.35366388  0.44184339    -0.17000
C111        C  0.14571863  0.45766813  0.05817166    -0.16200
C112        C  0.14914754  0.43993166  0.08398931     0.07900
C113        C  0.15306589  0.41971181  0.11558317     0.09700
C114        C  0.15605186  0.40304767  0.14428232    -0.17000
C115        C  0.09654053  0.25275368  0.14406256    -0.16200
C116        C  0.07993277  0.23315551  0.11516738     0.07900
C117        C  0.05977451  0.20908773  0.08330664     0.09700
C118        C  0.04207647  0.18796227  0.05728273    -0.17000
C119        C  0.05683412  0.99991091  0.00021491    -0.11000
C120        C  0.08141134  0.99989111  0.00032574    -0.12500
C121        C  0.99992591  0.05682597  0.99907459    -0.11000
C122        C  0.99991247  0.08140158  0.99894273    -0.12500
C123        C  0.24678915  0.34369717  0.14424185    -0.16200
C124        C  0.26635234  0.34658938  0.11541826     0.07900
C125        C  0.29037347  0.35035408  0.08366399     0.09700
C126        C  0.31147673  0.35369274  0.05774625    -0.17000
C127        C  0.41816048  0.41818697  0.99973062    -0.11000
C128        C  0.44279136  0.44281790  0.99971596    -0.12500
C129        C  0.25271644  0.09656302  0.85521662    -0.16200
C130        C  0.23313183  0.07993504  0.88409877     0.07900
C131        C  0.20908222  0.05975382  0.91594707     0.09700
C132        C  0.18796849  0.04204338  0.94196290    -0.17000
C133        C  0.18788568  0.04213318  0.55731353    -0.16200
C134        C  0.20900338  0.05984358  0.58333904     0.07900
C135        C  0.23306162  0.08001491  0.61520167     0.09700
C136        C  0.25265647  0.09662911  0.64409639    -0.17000
C137        C  0.40303178  0.15606158  0.85498099    -0.16200
C138        C  0.41970117  0.15305724  0.88365967     0.07900
C139        C  0.43992673  0.14912263  0.91523535     0.09700
C140        C  0.45767005  0.14568987  0.94104538    -0.17000
C141        C  0.45755777  0.14571109  0.55803172    -0.16200
C142        C  0.43982778  0.14914894  0.58386498     0.07900
C143        C  0.41961865  0.15308154  0.61548030     0.09700
C144        C  0.40296400  0.15607786  0.64419756    -0.17000
C145        C  0.35361647  0.31149948  0.55777700    -0.16200
C146        C  0.35028576  0.29040410  0.58368923     0.07900
C147        C  0.34653028  0.26639160  0.61543858     0.09700
C148        C  0.34364600  0.24683621  0.64425712    -0.17000
C149        C  0.34367277  0.24679687  0.85527933    -0.16200
C150        C  0.34656990  0.26635499  0.88411934     0.07900
C151        C  0.35033723  0.29037544  0.91587991     0.09700
C152        C  0.35367679  0.31148096  0.94179445    -0.17000
Fe153      Fe  0.29570090  0.67202238  0.74973394     1.65800
Fe154      Fe  0.32745757  0.62352920  0.74963517     1.73200
Fe155      Fe  0.37612134  0.70394681  0.74970503     1.54400
O156        O  0.36569899  0.72662426  0.69673132    -0.79400
O157        O  0.36068618  0.63401046  0.80250769    -0.77700
O158        O  0.31348291  0.70598633  0.69683376    -0.81900
O159        O  0.31346550  0.70589055  0.80279702    -0.76700
O160        O  0.39229641  0.68622946  0.69673760    -0.78500
O161        O  0.29357791  0.60732536  0.80269276    -0.81200
C162        C  0.34075052  0.72508472  0.81851577     0.99500
C163        C  0.34075117  0.72511774  0.68100541     1.07000
O164        O  0.33309524  0.66650074  0.74969176    -1.10200
O165        O  0.29348552  0.60731418  0.69669219    -0.72700
O166        O  0.27295646  0.63889492  0.69670512    -0.76100
O167        O  0.36569850  0.72666052  0.80264411    -0.76800
C168        C  0.27439836  0.61544679  0.68090041     0.98400
O169        O  0.27292657  0.63879971  0.80260918    -0.74800
O170        O  0.36059419  0.63401170  0.69663198    -0.80000
C171        C  0.38414964  0.65897037  0.81836533     1.01000
C172        C  0.38411056  0.65897082  0.68091290     1.07000
O173        O  0.39227428  0.68624580  0.80270913    -0.75600
C174        C  0.27443463  0.61539752  0.81844218     1.05300
C175        C  0.33696264  0.85757527  0.02783647     0.82500
N176        N  0.33340976  0.83340497  0.99980585    -0.75800
C177        C  0.35757298  0.83695568  0.97176068     0.85000
N178        N  0.38528912  0.86469032  0.97169864    -0.75700
C179        C  0.38885999  0.88886565  0.99977538     0.85100
N180        N  0.36469210  0.88529693  0.02786724    -0.77400
C181        C  0.02755546  0.99989080  0.99996320     0.82500
N182        N  0.49982063  0.97217201  0.99998986    -0.75800
C183        C  0.47212792  0.97213297  0.99970616     0.85000
N184        N  0.47217193  0.99982263  0.99939149    -0.75700
C185        C  0.49988555  0.52754922  0.99936556     0.85100
N186        N  0.02757782  0.52758018  0.99965352    -0.77400
C187        C  0.47925763  0.64183631  0.97101835     0.82500
N188        N  0.47927748  0.61417549  0.97088708    -0.75800
C189        C  0.99990085  0.61066473  0.99898777     0.85000
N190        N  0.02050501  0.63483252  0.02717755    -0.75700
C191        C  0.02050844  0.66250086  0.02721528     0.85100
N192        N  0.99987795  0.66599198  0.99916341    -0.77400
C193        C  0.14187006  0.97926230  0.02824672     0.82500
N194        N  0.16600363  0.49986904  0.00009538    -0.75800
C195        C  0.16249928  0.52048660  0.97204822     0.85000
N196        N  0.13482466  0.52048194  0.97209625    -0.75700
C197        C  0.11066442  0.49988996  0.00028886     0.85100
N198        N  0.11420331  0.97928125  0.02838757    -0.77400
Fe199      Fe  0.17195816  0.79576052  0.24970840     1.65800
Fe200      Fe  0.12346224  0.82751803  0.24965382     1.73200
Fe201      Fe  0.20389829  0.87616545  0.24973355     1.54400
O202        O  0.22655436  0.86574980  0.30276127    -0.79400
O203        O  0.13397786  0.86072589  0.19676589    -0.77700
O204        O  0.20588760  0.81354098  0.30268894    -0.81900
O205        O  0.20587177  0.81351239  0.19672451    -0.76700
O206        O  0.18615659  0.89234557  0.30265179    -0.78500
O207        O  0.10727816  0.79362681  0.19659638    -0.81200
C208        C  0.22507111  0.84078637  0.18100957     0.99500
C209        C  0.22502480  0.84080709  0.31852390     1.05600
O210        O  0.16644057  0.83315003  0.24969821    -1.10200
O211        O  0.10721093  0.79356652  0.30259903    -0.72700
O212        O  0.13878412  0.77302599  0.30266244    -0.76100
O213        O  0.22663498  0.86573342  0.19684743    -0.76800
C214        C  0.11532753  0.77447614  0.31841574     0.98400
O215        O  0.13876764  0.77298963  0.19676136    -0.74800
O216        O  0.13392529  0.86066661  0.30264238    -0.80000
C217        C  0.15895232  0.88418641  0.18095882     1.01000
C218        C  0.15888456  0.88417373  0.31840876     1.07000
O219        O  0.18622281  0.89231379  0.19668411    -0.75600
C220        C  0.11536498  0.77448899  0.18087755     1.05300
C221        C  0.33684857  0.85755735  0.47181081     0.82500
N222        N  0.33330925  0.83339991  0.49983951    -0.75800
C223        C  0.35749095  0.83696090  0.52785555     0.85000
N224        N  0.38521127  0.86469182  0.52788732    -0.75700
C225        C  0.38876740  0.88885334  0.49981152     0.85100
N226        N  0.36458129  0.88527387  0.47175019    -0.77400
C227        C  0.02745167  0.99991111  0.49928340     0.82500
N228        N  0.02747500  0.52759216  0.49952231    -0.75800
C229        C  0.49977467  0.52754488  0.49982548     0.85000
N230        N  0.47205185  0.99980982  0.49988989    -0.75700
C231        C  0.47202508  0.97212805  0.49966349     0.85100
N232        N  0.49972572  0.97218398  0.49936226    -0.77400
C233        C  0.47915508  0.64184378  0.52811694     0.82500
N234        N  0.47916457  0.61417768  0.52823031    -0.75800
C235        C  0.49977539  0.61065308  0.50011893     0.85000
N236        N  0.02037917  0.63481254  0.47193927    -0.75700
C237        C  0.02039299  0.66248663  0.47191913     0.85100
N238        N  0.99977440  0.66599113  0.49998176    -0.77400
C239        C  0.14178148  0.97930761  0.47104144     0.82500
N240        N  0.16593742  0.49993275  0.49919062    -0.75800
C241        C  0.16243477  0.52056555  0.52722128     0.85000
N242        N  0.13475949  0.52055879  0.52715718    -0.75700
C243        C  0.11059683  0.49995045  0.49896350     0.85100
N244        N  0.11411432  0.97932507  0.47088354    -0.77400
C245        C  0.05674224  0.49994918  0.49902594    -0.11000
C246        C  0.08132571  0.49994257  0.49891792    -0.12500
C247        C  0.49976923  0.58138742  0.50013798    -0.11000
C248        C  0.49978560  0.55681332  0.50003862    -0.12500
C249        C  0.41808554  0.91816929  0.49978602    -0.11000
C250        C  0.44271220  0.94280427  0.49973893    -0.12500
C251        C  0.09648143  0.75273796  0.35517821    -0.16200
C252        C  0.07985266  0.73313784  0.38403779     0.07900
C253        C  0.05967290  0.70906857  0.41585758     0.09700
C254        C  0.04196063  0.68794343  0.44185094    -0.17000
C255        C  0.15597513  0.90303765  0.35506764    -0.16200
C256        C  0.15298419  0.91971054  0.38375642     0.07900
C257        C  0.14906728  0.93994584  0.41533449     0.09700
C258        C  0.14564213  0.95769760  0.44113537    -0.17000
C259        C  0.24672266  0.84370789  0.35531199    -0.16200
C260        C  0.26626482  0.84658659  0.38416956     0.07900
C261        C  0.29026869  0.85033334  0.41595140     0.09700
C262        C  0.31136733  0.85366377  0.44187623    -0.17000
C263        C  0.14573435  0.95767034  0.05817570    -0.16200
C264        C  0.14916228  0.93993358  0.08399399     0.07900
C265        C  0.15307872  0.91971275  0.11558893     0.09700
C266        C  0.15606264  0.90304757  0.14428899    -0.17000
C267        C  0.09654652  0.75275367  0.14407460    -0.16200
C268        C  0.07993639  0.73315588  0.11518074     0.07900
C269        C  0.05977347  0.70908850  0.08332368     0.09700
C270        C  0.04207087  0.68796283  0.05730409    -0.17000
C271        C  0.05681957  0.49991029  0.00021400    -0.11000
C272        C  0.08139671  0.49989033  0.00032447    -0.12500
C273        C  0.99991194  0.55682548  0.99909332    -0.11000
C274        C  0.99989815  0.58140088  0.99896777    -0.12500
C275        C  0.24680014  0.84369203  0.14427456    -0.16200
C276        C  0.26636643  0.84658490  0.11545656     0.07900
C277        C  0.29039055  0.85035108  0.08370677     0.09700
C278        C  0.31149455  0.85369075  0.05778992    -0.17000
C279        C  0.41817477  0.91818638  0.99975677    -0.11000
C280        C  0.44280538  0.94281761  0.99973609    -0.12500
C281        C  0.25270561  0.59656237  0.85522279    -0.16200
C282        C  0.23311958  0.57993476  0.88410322     0.07900
C283        C  0.20906869  0.55975395  0.91594981     0.09700
C284        C  0.18795415  0.54204354  0.94196415    -0.17000
C285        C  0.18789004  0.54213347  0.55731450    -0.16200
C286        C  0.20900721  0.55984435  0.58334141     0.07900
C287        C  0.23306387  0.58001590  0.61520578     0.09700
C288        C  0.25265762  0.59663015  0.64410257    -0.17000
C289        C  0.40301637  0.65605695  0.85501462    -0.16200
C290        C  0.41968317  0.65305338  0.88369872     0.07900
C291        C  0.43990739  0.64912009  0.91527902     0.09700
C292        C  0.45765094  0.64568843  0.94108939    -0.17000
C293        C  0.45756495  0.64571065  0.55806477    -0.16200
C294        C  0.43983442  0.64914736  0.58389933     0.07900
C295        C  0.41962381  0.65307848  0.61551343     0.09700
C296        C  0.40296710  0.65607412  0.64422808    -0.17000
C297        C  0.35361875  0.81149995  0.55779476    -0.16200
C298        C  0.35028974  0.79040399  0.58370432     0.07900
C299        C  0.34653521  0.76639109  0.61545097     0.09700
C300        C  0.34365049  0.74683508  0.64426908    -0.17000
C301        C  0.34366791  0.74679710  0.85529139    -0.16200
C302        C  0.34656791  0.76635556  0.88413259     0.07900
C303        C  0.35034027  0.79037652  0.91589701     0.09700
C304        C  0.35368423  0.81148176  0.94181585    -0.17000
Fe305      Fe  0.79570366  0.17202246  0.74972410     1.65800
Fe306      Fe  0.82746287  0.12353158  0.74961841     1.73200
Fe307      Fe  0.87612447  0.20394960  0.74968506     1.54400
O308        O  0.86569786  0.22662667  0.69671598    -0.79400
O309        O  0.86069617  0.13401431  0.80248385    -0.77700
O310        O  0.81348161  0.20598646  0.69682351    -0.81900
O311        O  0.81346993  0.20589044  0.80278659    -0.76700
O312        O  0.89229653  0.18623292  0.69671232    -0.78500
O313        O  0.79358736  0.10732777  0.80268241    -0.81200
C314        C  0.84075540  0.22508506  0.81850346     0.99500
C315        C  0.84074899  0.22511898  0.68099316     1.07000
O316        O  0.83309898  0.16650247  0.74967644    -1.10200
O317        O  0.79348656  0.10731425  0.69668175    -0.72700
O318        O  0.77295761  0.13889494  0.69669635    -0.76100
O319        O  0.86570324  0.22666180  0.80262889    -0.76800
C320        C  0.77439885  0.11544654  0.68089198     0.98400
O321        O  0.77293261  0.13879918  0.80260051    -0.74800
O322        O  0.86059541  0.13401487  0.69660867    -0.80000
C323        C  0.88416080  0.15897453  0.81833824     1.01000
C324        C  0.88411005  0.15897437  0.68088681     1.07000
O325        O  0.89228284  0.18624979  0.80268360    -0.75600
C326        C  0.77444329  0.11539834  0.81843375     1.05300
C327        C  0.83694640  0.35757728  0.02779704     0.82500
N328        N  0.83339594  0.33340554  0.99977131    -0.75800
C329        C  0.85756199  0.33695607  0.97173288     0.85000
N330        N  0.88527757  0.36469052  0.97167298    -0.75700
C331        C  0.88884592  0.38886710  0.99974488     0.85100
N332        N  0.86467522  0.38529859  0.02782983    -0.77400
C333        C  0.52754148  0.49989034  0.99996242     0.82500
N334        N  0.99980623  0.47217162  0.99997928    -0.75800
C335        C  0.97211400  0.47213285  0.99969565     0.85000
N336        N  0.97215785  0.49982248  0.99939078    -0.75700
C337        C  0.99989924  0.02754946  0.99935651     0.85100
N338        N  0.52759201  0.02758048  0.99964448    -0.77400
C339        C  0.97927502  0.14183782  0.97097864     0.82500
N340        N  0.97929544  0.11417710  0.97085011    -0.75800
C341        C  0.49991559  0.11066584  0.99895795     0.85000
N342        N  0.52051598  0.13483307  0.02715259    -0.75700
C343        C  0.52051887  0.16250112  0.02718758     0.85100
N344        N  0.49989148  0.16599258  0.99912872    -0.77400
C345        C  0.64185453  0.47926039  0.02824374     0.82500
N346        N  0.66601876  0.99987016  0.00009703    -0.75800
C347        C  0.66251399  0.02048708  0.97204827     0.85000
N348        N  0.63483925  0.02048217  0.97209645    -0.75700
C349        C  0.61067945  0.99989096  0.00029013     0.85100
N350        N  0.61418790  0.47927946  0.02838483    -0.77400
Fe351      Fe  0.67195688  0.29576320  0.24968838     1.65800
Fe352      Fe  0.62345874  0.32751813  0.24964441     1.73200
Fe353      Fe  0.70389457  0.37616775  0.24971748     1.54400
O354        O  0.72655533  0.36575259  0.30273865    -0.79400
O355        O  0.63397062  0.36072514  0.19675692    -0.77700
O356        O  0.70588971  0.31354401  0.30266404    -0.81900
O357        O  0.70586676  0.31351653  0.19669952    -0.76700
O358        O  0.68615491  0.39234566  0.30264222    -0.78500
O359        O  0.60727251  0.29362636  0.19658694    -0.81200
C360        C  0.72506381  0.34079091  0.18098311     0.99500
C361        C  0.72502767  0.34081009  0.31849836     1.05600
O362        O  0.66643773  0.33315176  0.24968326    -1.10200
O363        O  0.60721186  0.29356722  0.30258961    -0.72700
O364        O  0.63878635  0.27302802  0.30264624    -0.76100
O365        O  0.72662820  0.36573739  0.19682419    -0.76800
C366        C  0.61533011  0.27447747  0.31840359     0.98400
O367        O  0.63876369  0.27299126  0.19674547    -0.74800
O368        O  0.63392347  0.36066719  0.30263362    -0.80000
C369        C  0.65894385  0.38418708  0.18095048     1.01000
C370        C  0.65888314  0.38417376  0.31840064     1.07000
O371        O  0.68621503  0.39231627  0.19667439    -0.75600
C372        C  0.61535959  0.27448936  0.18086535     1.05300
C373        C  0.83685355  0.35755672  0.47178170     0.82500
N374        N  0.83331171  0.33339951  0.49981295    -0.75800
C375        C  0.85749153  0.33696042  0.52783437     0.85000
N376        N  0.88521189  0.36469092  0.52786846    -0.75700
C377        C  0.88877062  0.38885247  0.49979004     0.85100
N378        N  0.86458648  0.38527310  0.47172363    -0.77400
C379        C  0.52745547  0.49991104  0.49928472     0.82500
N380        N  0.52747128  0.02759267  0.49951483    -0.75800
C381        C  0.99977077  0.02754485  0.49981874     0.85000
N382        N  0.97205547  0.49980938  0.49988963    -0.75700
C383        C  0.97202863  0.47212797  0.49965699     0.85100
N384        N  0.99972926  0.47218345  0.49935659    -0.77400
C385        C  0.97914893  0.14184338  0.52808756     0.82500
N386        N  0.97915794  0.11417728  0.52820405    -0.75800
C387        C  0.99977096  0.11065251  0.50009769     0.85000
N388        N  0.52037709  0.13481200  0.47192091    -0.75700
C389        C  0.52039161  0.16248632  0.47189773     0.85100
N390        N  0.49977072  0.16599094  0.49995537    -0.77400
C391        C  0.64178605  0.47930813  0.47104194     0.82500
N392        N  0.66593293  0.99993234  0.49919051    -0.75800
C393        C  0.66243026  0.02056512  0.52722022     0.85000
N394        N  0.63475531  0.02055893  0.52715600    -0.75700
C395        C  0.61059262  0.99995035  0.49896177     0.85100
N396        N  0.61411849  0.47932508  0.47088446    -0.77400
C397        C  0.55673844  0.99994961  0.49902399    -0.11000
C398        C  0.58132179  0.99994290  0.49891599    -0.12500
C399        C  0.99976484  0.08138709  0.50012095    -0.11000
C400        C  0.99978165  0.05681336  0.50002584    -0.12500
C401        C  0.91808890  0.41816867  0.49976831    -0.11000
C402        C  0.94271551  0.44280371  0.49972570    -0.12500
C403        C  0.59648632  0.25273928  0.35516630    -0.16200
C404        C  0.57985725  0.23313837  0.38402538     0.07900
C405        C  0.55967639  0.20906893  0.41584239     0.09700
C406        C  0.54196183  0.18794310  0.44183348    -0.17000
C407        C  0.65597463  0.40303710  0.35506180    -0.16200
C408        C  0.65298517  0.41971016  0.38375236     0.07900
C409        C  0.64907027  0.43994602  0.41533251     0.09700
C410        C  0.64564634  0.45769795  0.44113485    -0.17000
C411        C  0.74672821  0.34371096  0.35528222    -0.16200
C412        C  0.76627168  0.34658904  0.38413718     0.07900
C413        C  0.79027582  0.35033438  0.41591765     0.09700
C414        C  0.81137376  0.35366387  0.44184339    -0.17000
C415        C  0.64571867  0.45766802  0.05817173    -0.16200
C416        C  0.64914750  0.43993172  0.08398918     0.07900
C417        C  0.65306591  0.41971177  0.11558326     0.09700
C418        C  0.65605189  0.40304771  0.14428226    -0.17000
C419        C  0.59654049  0.25275368  0.14406256    -0.16200
C420        C  0.57993276  0.23315553  0.11516739     0.07900
C421        C  0.55977446  0.20908770  0.08330663     0.09700
C422        C  0.54207647  0.18796228  0.05728273    -0.17000
C423        C  0.55683423  0.99991088  0.00021491    -0.11000
C424        C  0.58141127  0.99989110  0.00032574    -0.12500
C425        C  0.49992599  0.05682595  0.99907457    -0.11000
C426        C  0.49991251  0.08140167  0.99894273    -0.12500
C427        C  0.74678922  0.34369717  0.14424174    -0.16200
C428        C  0.76635227  0.34658937  0.11541828     0.07900
C429        C  0.79037353  0.35035409  0.08366392     0.09700
C430        C  0.81147673  0.35369273  0.05774631    -0.17000
C431        C  0.91816047  0.41818696  0.99973063    -0.11000
C432        C  0.94279137  0.44281794  0.99971596    -0.12500
C433        C  0.75271645  0.09656301  0.85521665    -0.16200
C434        C  0.73313186  0.07993503  0.88409879     0.07900
C435        C  0.70908225  0.05975383  0.91594706     0.09700
C436        C  0.68796848  0.04204338  0.94196290    -0.17000
C437        C  0.68788570  0.04213316  0.55731350    -0.16200
C438        C  0.70900340  0.05984359  0.58333904     0.07900
C439        C  0.73306157  0.08001490  0.61520169     0.09700
C440        C  0.75265647  0.09662911  0.64409642    -0.17000
C441        C  0.90303174  0.15606158  0.85498094    -0.16200
C442        C  0.91970120  0.15305723  0.88365974     0.07900
C443        C  0.93992672  0.14912265  0.91523529     0.09700
C444        C  0.95767010  0.14568993  0.94104540    -0.17000
C445        C  0.95755778  0.14571107  0.55803169    -0.16200
C446        C  0.93982775  0.14914893  0.58386505     0.07900
C447        C  0.91961867  0.15308155  0.61548032     0.09700
C448        C  0.90296401  0.15607787  0.64419759    -0.17000
C449        C  0.85361650  0.31149949  0.55777698    -0.16200
C450        C  0.85028576  0.29040408  0.58368926     0.07900
C451        C  0.84653026  0.26639162  0.61543856     0.09700
C452        C  0.84364601  0.24683620  0.64425714    -0.17000
C453        C  0.84367279  0.24679687  0.85527934    -0.16200
C454        C  0.84656993  0.26635500  0.88411934     0.07900
C455        C  0.85033726  0.29037544  0.91587991     0.09700
C456        C  0.85367681  0.31148095  0.94179446    -0.17000
Fe457      Fe  0.79570097  0.67202239  0.74973395     1.65800
Fe458      Fe  0.82745750  0.62352916  0.74963517     1.73200
Fe459      Fe  0.87612142  0.70394687  0.74970502     1.54400
O460        O  0.86569892  0.72662430  0.69673124    -0.79400
O461        O  0.86068611  0.63401047  0.80250778    -0.77700
O462        O  0.81348284  0.70598627  0.69683382    -0.81900
O463        O  0.81346552  0.70589056  0.80279702    -0.76700
O464        O  0.89229640  0.68622944  0.69673762    -0.78500
O465        O  0.79357780  0.60732531  0.80269275    -0.81200
C466        C  0.84075054  0.72508473  0.81851578     0.99500
C467        C  0.84075126  0.72511776  0.68100546     1.07000
O468        O  0.83309527  0.66650075  0.74969175    -1.10200
O469        O  0.79348548  0.60731417  0.69669217    -0.72700
O470        O  0.77295644  0.63889492  0.69670508    -0.76100
O471        O  0.86569852  0.72666052  0.80264412    -0.76800
C472        C  0.77439836  0.61544679  0.68090041     0.98400
O473        O  0.77292657  0.63879974  0.80260922    -0.74800
O474        O  0.86059412  0.63401170  0.69663203    -0.80000
C475        C  0.88414956  0.65897035  0.81836528     1.01000
C476        C  0.88411058  0.65897090  0.68091292     1.07000
O477        O  0.89227431  0.68624580  0.80270909    -0.75600
C478        C  0.77443460  0.61539754  0.81844211     1.05300
C479        C  0.83696266  0.85757526  0.02783647     0.82500
N480        N  0.83340979  0.83340497  0.99980585    -0.75800
C481        C  0.85757300  0.83695567  0.97176068     0.85000
N482        N  0.88528913  0.86469030  0.97169864    -0.75700
C483        C  0.88886001  0.88886564  0.99977538     0.85100
N484        N  0.86469211  0.88529692  0.02786724    -0.77400
C485        C  0.52755539  0.99989081  0.99996320     0.82500
N486        N  0.99982061  0.97217203  0.99998986    -0.75800
C487        C  0.97212796  0.97213297  0.99970616     0.85000
N488        N  0.97217190  0.99982260  0.99939149    -0.75700
C489        C  0.99988544  0.52754927  0.99936556     0.85100
N490        N  0.52757777  0.52758021  0.99965352    -0.77400
C491        C  0.97925765  0.64183631  0.97101837     0.82500
N492        N  0.97927748  0.61417550  0.97088710    -0.75800
C493        C  0.49990082  0.61066474  0.99898782     0.85000
N494        N  0.52050499  0.63483251  0.02717761    -0.75700
C495        C  0.52050843  0.66250084  0.02721537     0.85100
N496        N  0.49987789  0.66599194  0.99916343    -0.77400
C497        C  0.64187022  0.97926234  0.02824667     0.82500
N498        N  0.66600363  0.49986892  0.00009547    -0.75800
C499        C  0.66249901  0.52048662  0.97204815     0.85000
N500        N  0.63482477  0.52048194  0.97209629    -0.75700
C501        C  0.61066426  0.49988998  0.00028879     0.85100
N502        N  0.61420325  0.97928127  0.02838754    -0.77400
Fe503      Fe  0.67195816  0.79576051  0.24970840     1.65800
Fe504      Fe  0.62346227  0.82751805  0.24965381     1.73200
Fe505      Fe  0.70389833  0.87616546  0.24973355     1.54400
O506        O  0.72655437  0.86574979  0.30276124    -0.79400
O507        O  0.63397782  0.86072584  0.19676593    -0.77700
O508        O  0.70588761  0.81354098  0.30268893    -0.81900
O509        O  0.70587179  0.81351238  0.19672453    -0.76700
O510        O  0.68615662  0.89234557  0.30265179    -0.78500
O511        O  0.60727818  0.79362681  0.19659637    -0.81200
C512        C  0.72507113  0.84078637  0.18100957     0.99500
C513        C  0.72502478  0.84080709  0.31852381     1.05600
O514        O  0.66644059  0.83315004  0.24969820    -1.10200
O515        O  0.60721093  0.79356651  0.30259903    -0.72700
O516        O  0.63878415  0.77302601  0.30266240    -0.76100
O517        O  0.72663500  0.86573342  0.19684741    -0.76800
C518        C  0.61532752  0.77447614  0.31841575     0.98400
O519        O  0.63876765  0.77298962  0.19676136    -0.74800
O520        O  0.63392531  0.86066662  0.30264238    -0.80000
C521        C  0.65895242  0.88418643  0.18095890     1.01000
C522        C  0.65888459  0.88417373  0.31840876     1.07000
O523        O  0.68622274  0.89231378  0.19668404    -0.75600
C524        C  0.61536500  0.77448898  0.18087754     1.05300
C525        C  0.83684876  0.85755740  0.47181100     0.82500
N526        N  0.83330917  0.83339991  0.49983943    -0.75800
C527        C  0.85749110  0.83696096  0.52785563     0.85000
N528        N  0.88521125  0.86469180  0.52788723    -0.75700
C529        C  0.88876752  0.88885336  0.49981165     0.85100
N530        N  0.86458118  0.88527384  0.47175011    -0.77400
C531        C  0.52745167  0.99991110  0.49928340     0.82500
N532        N  0.52747494  0.52759215  0.49952231    -0.75800
C533        C  0.99977455  0.52754489  0.49982548     0.85000
N534        N  0.97205185  0.99980983  0.49988989    -0.75700
C535        C  0.97202508  0.97212805  0.49966349     0.85100
N536        N  0.99972571  0.97218397  0.49936226    -0.77400
C537        C  0.97915505  0.64184372  0.52811691     0.82500
N538        N  0.97916454  0.61417770  0.52823031    -0.75800
C539        C  0.99977542  0.61065310  0.50011890     0.85000
N540        N  0.52037916  0.63481252  0.47193928    -0.75700
C541        C  0.52039306  0.66248667  0.47191917     0.85100
N542        N  0.49977447  0.66599115  0.49998182    -0.77400
C543        C  0.64178150  0.97930760  0.47104143     0.82500
N544        N  0.66593740  0.49993276  0.49919064    -0.75800
C545        C  0.66243484  0.52056550  0.52722122     0.85000
N546        N  0.63475941  0.52055879  0.52715717    -0.75700
C547        C  0.61059693  0.49995042  0.49896347     0.85100
N548        N  0.61411433  0.97932507  0.47088354    -0.77400
C549        C  0.55674226  0.49994918  0.49902593    -0.11000
C550        C  0.58132566  0.49994256  0.49891788    -0.12500
C551        C  0.99976924  0.58138746  0.50013802    -0.11000
C552        C  0.99978562  0.55681332  0.50003862    -0.12500
C553        C  0.91808552  0.91816928  0.49978597    -0.11000
C554        C  0.94271221  0.94280427  0.49973892    -0.12500
C555        C  0.59648147  0.75273799  0.35517816    -0.16200
C556        C  0.57985261  0.73313782  0.38403780     0.07900
C557        C  0.55967294  0.70906858  0.41585753     0.09700
C558        C  0.54196067  0.68794340  0.44185099    -0.17000
C559        C  0.65597516  0.90303765  0.35506764    -0.16200
C560        C  0.65298422  0.91971054  0.38375642     0.07900
C561        C  0.64906730  0.93994584  0.41533449     0.09700
C562        C  0.64564215  0.95769760  0.44113537    -0.17000
C563        C  0.74672274  0.84370791  0.35531211    -0.16200
C564        C  0.76626474  0.84658658  0.38416949     0.07900
C565        C  0.79026882  0.85033337  0.41595161     0.09700
C566        C  0.81136719  0.85366377  0.44187618    -0.17000
C567        C  0.64573433  0.95767030  0.05817575    -0.16200
C568        C  0.64916223  0.93993360  0.08399395     0.07900
C569        C  0.65307871  0.91971269  0.11558905     0.09700
C570        C  0.65606259  0.90304761  0.14428895    -0.17000
C571        C  0.59654654  0.75275366  0.14407459    -0.16200
C572        C  0.57993641  0.73315586  0.11518071     0.07900
C573        C  0.55977348  0.70908852  0.08332368     0.09700
C574        C  0.54207080  0.68796281  0.05730410    -0.17000
C575        C  0.55681948  0.49991028  0.00021403    -0.11000
C576        C  0.58139675  0.49989031  0.00032450    -0.12500
C577        C  0.49991200  0.55682559  0.99909329    -0.11000
C578        C  0.49989810  0.58140083  0.99896778    -0.12500
C579        C  0.74680016  0.84369203  0.14427456    -0.16200
C580        C  0.76636646  0.84658490  0.11545656     0.07900
C581        C  0.79039058  0.85035108  0.08370677     0.09700
C582        C  0.81149457  0.85369075  0.05778992    -0.17000
C583        C  0.91817477  0.91818636  0.99975677    -0.11000
C584        C  0.94280535  0.94281760  0.99973609    -0.12500
C585        C  0.75270549  0.59656232  0.85522290    -0.16200
C586        C  0.73311963  0.57993482  0.88410312     0.07900
C587        C  0.70906852  0.55975391  0.91594988     0.09700
C588        C  0.68795423  0.54204359  0.94196408    -0.17000
C589        C  0.68789006  0.54213350  0.55731454    -0.16200
C590        C  0.70900715  0.55984432  0.58334138     0.07900
C591        C  0.73306390  0.58001593  0.61520580     0.09700
C592        C  0.75265759  0.59663014  0.64410249    -0.17000
C593        C  0.90301637  0.65605690  0.85501473    -0.16200
C594        C  0.91968308  0.65305334  0.88369864     0.07900
C595        C  0.93990745  0.64912009  0.91527911     0.09700
C596        C  0.95765088  0.64568846  0.94108939    -0.17000
C597        C  0.95756488  0.64571063  0.55806479    -0.16200
C598        C  0.93983441  0.64914734  0.58389935     0.07900
C599        C  0.91962379  0.65307850  0.61551354     0.09700
C600        C  0.90296710  0.65607412  0.64422813    -0.17000
C601        C  0.85361872  0.81149991  0.55779476    -0.16200
C602        C  0.85028970  0.79040401  0.58370428     0.07900
C603        C  0.84653519  0.76639106  0.61545105     0.09700
C604        C  0.84365044  0.74683512  0.64426905    -0.17000
C605        C  0.84366793  0.74679710  0.85529139    -0.16200
C606        C  0.84656793  0.76635556  0.88413259     0.07900
C607        C  0.85034030  0.79037652  0.91589701     0.09700
C608        C  0.85368425  0.81148175  0.94181585    -0.17000
loop_ 
_geom_bond_atom_site_label_1 
_geom_bond_atom_site_label_2 
_geom_bond_distance 
_geom_bond_site_symmetry_2 
_ccdc_geom_bond_type 
Fe1          O17   2.063       .  S
Fe1           O7   2.063       .  S
Fe1          O14   2.062       .  S
Fe1           O6   2.063       .  S
Fe1          O12   1.984       .  S
Fe2           O5   2.063       .  S
Fe2           O9   2.064       .  S
Fe2          O13   2.064       .  S
Fe2          O18   2.063       .  S
Fe2          O12   1.983       .  S
Fe3          O21   2.064       .  S
Fe3           O8   2.064       .  S
Fe3          O15   2.063       .  S
Fe3           O4   2.063       .  S
Fe3          O12   1.984       .  S
O4           C11   1.266       .  A
O5           C19   1.266       .  A
O6           C11   1.267       .  A
O7           C10   1.267       .  A
O8           C20   1.267       .  A
O9           C22   1.267       .  A
C10          O15   1.267       .  A
C10         C149   1.433       .  S
C11         C148   1.433       .  S
O13          C16   1.267       .  A
O14          C16   1.266       .  A
C16         C136   1.433       .  S
O17          C22   1.266       .  A
O18          C20   1.266       .  A
C19          O21   1.267       .  A
C19         C137   1.434       .  S
C20         C144   1.434       .  S
C22         C129   1.433       .  S
C23         C126   1.434       .  S
C23          N24   1.356   1_554  A
C23          N28   1.357       .  A
N24          C25   1.356       .  A
C25         C152   1.434       .  S
C25          N26   1.357       .  A
N26          C27   1.357       .  A
C27         C127   1.435       .  S
C27          N28   1.357   1_556  A
C29         C271   1.435   1_556  S
C29         N334   1.357   1_455  A
C29         N186   1.357       .  A
N30          C31   1.357       .  A
N30         C333   1.357       .  A
C31         C128   1.435       .  S
C31          N32   1.357       .  A
N32         C185   1.357       .  A
C33         C425   1.435       .  S
C33         N184   1.357   1_545  A
C33         N338   1.357       .  A
N34         C181   1.357   1_545  A
N34         C337   1.357   1_455  A
C35         C140   1.434       .  S
C35          N36   1.357       .  A
C35         N344   1.356       .  A
N36         C341   1.357       .  A
C37         C122   1.435       .  S
C37          N38   1.357   1_656  A
C37         N340   1.357       .  A
N38          C39   1.357       .  A
C39         C118   1.434       .  S
C39          N40   1.356   1_454  A
N40         C339   1.356       .  A
C41         C111   1.434       .  S
C41          N46   1.357       .  A
C41         N194   1.356       .  A
N42          C43   1.356   1_564  A
N42         C193   1.356       .  A
C43         C132   1.434       .  S
C43          N44   1.357       .  A
N44          C45   1.357   1_546  A
C45         C120   1.435       .  S
C45         N198   1.357       .  A
N46         C197   1.357       .  A
Fe47         O63   2.063       .  S
Fe47         O53   2.063       .  S
Fe47         O60   2.062       .  S
Fe47         O52   2.063       .  S
Fe47         O58   1.984       .  S
Fe48         O51   2.063       .  S
Fe48         O55   2.064       .  S
Fe48         O59   2.064       .  S
Fe48         O64   2.063       .  S
Fe48         O58   1.983       .  S
Fe49         O67   2.064       .  S
Fe49         O54   2.064       .  S
Fe49         O61   2.063       .  S
Fe49         O50   2.063       .  S
Fe49         O58   1.984       .  S
O50          C57   1.266       .  A
O51          C65   1.266       .  A
O52          C57   1.267       .  A
O53          C56   1.267       .  A
O54          C66   1.267       .  A
O55          C68   1.267       .  A
C56          O61   1.266       .  A
C56         C123   1.433       .  S
C57         C107   1.433       .  S
O59          C62   1.267       .  A
O60          C62   1.266       .  A
C62          C99   1.433       .  S
O63          C68   1.266       .  A
O64          C66   1.266       .  A
C65          O67   1.267       .  A
C65         C114   1.434       .  S
C66         C103   1.434       .  S
C68         C115   1.433       .  S
C69         C110   1.434       .  S
C69          N70   1.356       .  A
C69          N74   1.357       .  A
N70          C71   1.356       .  A
C71         C145   1.434       .  S
C71          N72   1.357       .  A
N72          C73   1.357       .  A
C73          C97   1.435       .  S
C73          N74   1.357       .  A
C75         C245   1.435       .  S
C75         N228   1.357       .  A
C75         N384   1.357   1_455  A
N76         C227   1.357   1_545  A
N76         C381   1.357   1_455  A
C77          C96   1.435       .  S
C77         N380   1.357       .  A
C77         N230   1.357   1_545  A
N78          C79   1.357       .  A
N78         C229   1.357       .  A
C79          C98   1.435       .  S
C79          N80   1.357       .  A
N80         C379   1.357       .  A
C81         C141   1.434       .  S
C81          N82   1.357       .  A
C81         N390   1.356       .  A
N82          C83   1.357       .  A
C83          C95   1.435       .  S
C83         N388   1.357       .  A
N84          C85   1.357       .  A
N84         C387   1.357   1_455  A
C85         C102   1.434       .  S
C85          N86   1.356   1_455  A
N86         C385   1.356       .  A
C87         C106   1.434       .  S
C87          N92   1.357       .  A
C87         N240   1.356       .  A
N88          C89   1.356   1_565  A
N88         C239   1.356       .  A
C89         C133   1.434       .  S
C89          N90   1.357       .  A
N90          C91   1.357   1_545  A
C91          C94   1.435       .  S
C91         N244   1.357       .  A
N92         C243   1.357       .  A
C93         C227   1.435       .  S
C93          C94   1.206       .  T
C95          C96   1.206       .  T
C97          C98   1.206       .  T
C99         C100   1.205       .  T
C100        C101   1.410       .  S
C101        C102   1.205       .  T
C103        C104   1.205       .  T
C104        C105   1.411       .  S
C105        C106   1.205       .  T
C107        C108   1.205       .  T
C108        C109   1.410       .  S
C109        C110   1.205       .  T
C111        C112   1.205       .  T
C112        C113   1.411       .  S
C113        C114   1.205       .  T
C115        C116   1.205       .  T
C116        C117   1.410       .  S
C117        C118   1.205       .  T
C119        C181   1.435   1_554  S
C119        C120   1.206       .  T
C121        C337   1.435       .  S
C121        C122   1.206       .  T
C123        C124   1.205       .  T
C124        C125   1.410       .  S
C125        C126   1.205       .  T
C127        C128   1.206       .  T
C129        C130   1.205       .  T
C130        C131   1.410       .  S
C131        C132   1.205       .  T
C133        C134   1.205       .  T
C134        C135   1.410       .  S
C135        C136   1.205       .  T
C137        C138   1.205       .  T
C138        C139   1.411       .  S
C139        C140   1.205       .  T
C141        C142   1.205       .  T
C142        C143   1.411       .  S
C143        C144   1.205       .  T
C145        C146   1.205       .  T
C146        C147   1.410       .  S
C147        C148   1.205       .  T
C149        C150   1.205       .  T
C150        C151   1.410       .  S
C151        C152   1.205       .  T
Fe153       O169   2.063       .  S
Fe153       O159   2.063       .  S
Fe153       O166   2.062       .  S
Fe153       O158   2.063       .  S
Fe153       O164   1.984       .  S
Fe154       O157   2.063       .  S
Fe154       O161   2.064       .  S
Fe154       O165   2.064       .  S
Fe154       O170   2.063       .  S
Fe154       O164   1.983       .  S
Fe155       O173   2.064       .  S
Fe155       O160   2.064       .  S
Fe155       O167   2.063       .  S
Fe155       O156   2.063       .  S
Fe155       O164   1.984       .  S
O156        C163   1.266       .  A
O157        C171   1.266       .  A
O158        C163   1.267       .  A
O159        C162   1.267       .  A
O160        C172   1.267       .  A
O161        C174   1.267       .  A
C162        O167   1.266       .  A
C162        C301   1.433       .  S
C163        C300   1.433       .  S
O165        C168   1.267       .  A
O166        C168   1.266       .  A
C168        C288   1.433       .  S
O169        C174   1.266       .  A
O170        C172   1.266       .  A
C171        O173   1.267       .  A
C171        C289   1.434       .  S
C172        C296   1.434       .  S
C174        C281   1.433       .  S
C175        C278   1.434       .  S
C175        N176   1.356   1_554  A
C175        N180   1.357       .  A
N176        C177   1.356       .  A
C177        C304   1.434       .  S
C177        N178   1.357       .  A
N178        C179   1.357       .  A
C179        C279   1.435       .  S
C179        N180   1.357   1_556  A
C181        N486   1.357   1_455  A
N182        C485   1.357       .  A
N182        C183   1.357       .  A
C183        C280   1.435       .  S
C183        N184   1.357       .  A
C185        C577   1.435       .  S
C185        N490   1.357       .  A
N186        C489   1.357   1_455  A
C187        C292   1.434       .  S
C187        N188   1.357       .  A
C187        N496   1.356       .  A
N188        C493   1.357       .  A
C189        C274   1.435       .  S
C189        N492   1.357       .  A
C189        N190   1.357   1_656  A
N190        C191   1.357       .  A
C191        C270   1.434       .  S
C191        N192   1.356   1_454  A
N192        C491   1.356       .  A
C193        C263   1.434       .  S
C193        N198   1.357       .  A
N194        C195   1.356   1_554  A
C195        C284   1.434       .  S
C195        N196   1.357       .  A
N196        C197   1.357   1_556  A
C197        C272   1.435       .  S
Fe199       O215   2.063       .  S
Fe199       O205   2.063       .  S
Fe199       O212   2.062       .  S
Fe199       O204   2.063       .  S
Fe199       O210   1.984       .  S
Fe200       O203   2.063       .  S
Fe200       O207   2.064       .  S
Fe200       O211   2.064       .  S
Fe200       O216   2.063       .  S
Fe200       O210   1.983       .  S
Fe201       O219   2.064       .  S
Fe201       O206   2.064       .  S
Fe201       O213   2.063       .  S
Fe201       O202   2.063       .  S
Fe201       O210   1.984       .  S
O202        C209   1.266       .  A
O203        C217   1.266       .  A
O204        C209   1.267       .  A
O205        C208   1.267       .  A
O206        C218   1.267       .  A
O207        C220   1.267       .  A
C208        O213   1.266       .  A
C208        C275   1.433       .  S
C209        C259   1.433       .  S
O211        C214   1.267       .  A
O212        C214   1.266       .  A
C214        C251   1.433       .  S
O215        C220   1.266       .  A
O216        C218   1.266       .  A
C217        O219   1.267       .  A
C217        C266   1.434       .  S
C218        C255   1.434       .  S
C220        C267   1.433       .  S
C221        C262   1.434       .  S
C221        N222   1.356       .  A
C221        N226   1.357       .  A
N222        C223   1.356       .  A
C223        C297   1.434       .  S
C223        N224   1.357       .  A
N224        C225   1.357       .  A
C225        C249   1.435       .  S
C225        N226   1.357       .  A
C227        N536   1.357   1_455  A
N228        C533   1.357   1_455  A
C229        C248   1.435       .  S
C229        N532   1.357       .  A
N230        C231   1.357       .  A
C231        C250   1.435       .  S
C231        N232   1.357       .  A
N232        C531   1.357       .  A
C233        C293   1.434       .  S
C233        N234   1.357       .  A
C233        N542   1.356       .  A
N234        C235   1.357       .  A
C235        C247   1.435       .  S
C235        N540   1.357       .  A
N236        C539   1.357   1_455  A
N236        C237   1.357       .  A
C237        C254   1.434       .  S
C237        N238   1.356   1_455  A
N238        C537   1.356       .  A
C239        C258   1.434       .  S
C239        N244   1.357       .  A
N240        C241   1.356       .  A
C241        C285   1.434       .  S
C241        N242   1.357       .  A
N242        C243   1.357       .  A
C243        C246   1.435       .  S
C245        C246   1.206       .  T
C247        C248   1.206       .  T
C249        C250   1.206       .  T
C251        C252   1.205       .  T
C252        C253   1.410       .  S
C253        C254   1.205       .  T
C255        C256   1.205       .  T
C256        C257   1.411       .  S
C257        C258   1.205       .  T
C259        C260   1.205       .  T
C260        C261   1.410       .  S
C261        C262   1.205       .  T
C263        C264   1.205       .  T
C264        C265   1.411       .  S
C265        C266   1.205       .  T
C267        C268   1.205       .  T
C268        C269   1.410       .  S
C269        C270   1.205       .  T
C271        C272   1.206       .  T
C273        C489   1.435       .  S
C273        C274   1.206       .  T
C275        C276   1.205       .  T
C276        C277   1.410       .  S
C277        C278   1.205       .  T
C279        C280   1.206       .  T
C281        C282   1.205       .  T
C282        C283   1.410       .  S
C283        C284   1.205       .  T
C285        C286   1.205       .  T
C286        C287   1.410       .  S
C287        C288   1.205       .  T
C289        C290   1.205       .  T
C290        C291   1.411       .  S
C291        C292   1.205       .  T
C293        C294   1.205       .  T
C294        C295   1.411       .  S
C295        C296   1.205       .  T
C297        C298   1.205       .  T
C298        C299   1.410       .  S
C299        C300   1.205       .  T
C301        C302   1.205       .  T
C302        C303   1.410       .  S
C303        C304   1.205       .  T
Fe305       O321   2.063       .  S
Fe305       O311   2.063       .  S
Fe305       O318   2.062       .  S
Fe305       O310   2.063       .  S
Fe305       O316   1.984       .  S
Fe306       O309   2.063       .  S
Fe306       O313   2.064       .  S
Fe306       O317   2.064       .  S
Fe306       O322   2.063       .  S
Fe306       O316   1.983       .  S
Fe307       O325   2.064       .  S
Fe307       O312   2.064       .  S
Fe307       O319   2.063       .  S
Fe307       O308   2.063       .  S
Fe307       O316   1.984       .  S
O308        C315   1.266       .  A
O309        C323   1.266       .  A
O310        C315   1.267       .  A
O311        C314   1.267       .  A
O312        C324   1.267       .  A
O313        C326   1.267       .  A
C314        O319   1.267       .  A
C314        C453   1.433       .  S
C315        C452   1.433       .  S
O317        C320   1.267       .  A
O318        C320   1.266       .  A
C320        C440   1.433       .  S
O321        C326   1.266       .  A
O322        C324   1.266       .  A
C323        O325   1.267       .  A
C323        C441   1.434       .  S
C324        C448   1.434       .  S
C326        C433   1.433       .  S
C327        C430   1.434       .  S
C327        N328   1.356   1_554  A
C327        N332   1.357       .  A
N328        C329   1.356       .  A
C329        C456   1.434       .  S
C329        N330   1.357       .  A
N330        C331   1.357       .  A
C331        C431   1.435       .  S
C331        N332   1.357   1_556  A
C333        C575   1.435   1_556  S
C333        N490   1.357       .  A
N334        C335   1.357       .  A
C335        C432   1.435       .  S
C335        N336   1.357       .  A
N336        C489   1.357       .  A
C337        N488   1.357   1_545  A
N338        C485   1.357   1_545  A
C339        C444   1.434       .  S
C339        N340   1.357       .  A
C341        C426   1.435       .  S
C341        N342   1.357   1_556  A
N342        C343   1.357       .  A
C343        C422   1.434       .  S
C343        N344   1.356   1_554  A
C345        C415   1.434       .  S
C345        N498   1.356       .  A
C345        N350   1.357       .  A
N346        C497   1.356       .  A
N346        C347   1.356   1_564  A
C347        C436   1.434       .  S
C347        N348   1.357       .  A
N348        C349   1.357   1_546  A
C349        C424   1.435       .  S
C349        N502   1.357       .  A
N350        C501   1.357       .  A
Fe351       O367   2.063       .  S
Fe351       O357   2.063       .  S
Fe351       O364   2.062       .  S
Fe351       O356   2.063       .  S
Fe351       O362   1.984       .  S
Fe352       O355   2.063       .  S
Fe352       O359   2.064       .  S
Fe352       O363   2.064       .  S
Fe352       O368   2.063       .  S
Fe352       O362   1.983       .  S
Fe353       O371   2.064       .  S
Fe353       O358   2.064       .  S
Fe353       O365   2.063       .  S
Fe353       O354   2.063       .  S
Fe353       O362   1.984       .  S
O354        C361   1.266       .  A
O355        C369   1.266       .  A
O356        C361   1.267       .  A
O357        C360   1.267       .  A
O358        C370   1.267       .  A
O359        C372   1.267       .  A
C360        O365   1.266       .  A
C360        C427   1.433       .  S
C361        C411   1.433       .  S
O363        C366   1.267       .  A
O364        C366   1.266       .  A
C366        C403   1.433       .  S
O367        C372   1.266       .  A
O368        C370   1.266       .  A
C369        O371   1.267       .  A
C369        C418   1.434       .  S
C370        C407   1.434       .  S
C372        C419   1.433       .  S
C373        C414   1.434       .  S
C373        N374   1.356       .  A
C373        N378   1.357       .  A
N374        C375   1.356       .  A
C375        C449   1.434       .  S
C375        N376   1.357       .  A
N376        C377   1.357       .  A
C377        C401   1.435       .  S
C377        N378   1.357       .  A
C379        C549   1.435       .  S
C379        N532   1.357       .  A
N380        C531   1.357   1_545  A
C381        C400   1.435       .  S
C381        N534   1.357   1_545  A
N382        C533   1.357       .  A
N382        C383   1.357       .  A
C383        C402   1.435       .  S
C383        N384   1.357       .  A
C385        C445   1.434       .  S
C385        N386   1.357       .  A
N386        C387   1.357       .  A
C387        C399   1.435       .  S
N388        C389   1.357       .  A
C389        C406   1.434       .  S
C389        N390   1.356       .  A
C391        C410   1.434       .  S
C391        N544   1.356       .  A
C391        N396   1.357       .  A
N392        C543   1.356       .  A
N392        C393   1.356   1_565  A
C393        C437   1.434       .  S
C393        N394   1.357       .  A
N394        C395   1.357   1_545  A
C395        C398   1.435       .  S
C395        N548   1.357       .  A
N396        C547   1.357       .  A
C397        C531   1.435       .  S
C397        C398   1.206       .  T
C399        C400   1.206       .  T
C401        C402   1.206       .  T
C403        C404   1.205       .  T
C404        C405   1.410       .  S
C405        C406   1.205       .  T
C407        C408   1.205       .  T
C408        C409   1.411       .  S
C409        C410   1.205       .  T
C411        C412   1.205       .  T
C412        C413   1.410       .  S
C413        C414   1.205       .  T
C415        C416   1.205       .  T
C416        C417   1.411       .  S
C417        C418   1.205       .  T
C419        C420   1.205       .  T
C420        C421   1.410       .  S
C421        C422   1.205       .  T
C423        C485   1.435   1_554  S
C423        C424   1.206       .  T
C425        C426   1.206       .  T
C427        C428   1.205       .  T
C428        C429   1.410       .  S
C429        C430   1.205       .  T
C431        C432   1.206       .  T
C433        C434   1.205       .  T
C434        C435   1.410       .  S
C435        C436   1.205       .  T
C437        C438   1.205       .  T
C438        C439   1.410       .  S
C439        C440   1.205       .  T
C441        C442   1.205       .  T
C442        C443   1.411       .  S
C443        C444   1.205       .  T
C445        C446   1.205       .  T
C446        C447   1.411       .  S
C447        C448   1.205       .  T
C449        C450   1.205       .  T
C450        C451   1.410       .  S
C451        C452   1.205       .  T
C453        C454   1.205       .  T
C454        C455   1.410       .  S
C455        C456   1.205       .  T
Fe457       O473   2.063       .  S
Fe457       O463   2.063       .  S
Fe457       O470   2.062       .  S
Fe457       O462   2.063       .  S
Fe457       O468   1.984       .  S
Fe458       O461   2.063       .  S
Fe458       O465   2.064       .  S
Fe458       O469   2.064       .  S
Fe458       O474   2.063       .  S
Fe458       O468   1.983       .  S
Fe459       O477   2.064       .  S
Fe459       O464   2.064       .  S
Fe459       O471   2.063       .  S
Fe459       O460   2.063       .  S
Fe459       O468   1.984       .  S
O460        C467   1.266       .  A
O461        C475   1.266       .  A
O462        C467   1.267       .  A
O463        C466   1.267       .  A
O464        C476   1.267       .  A
O465        C478   1.267       .  A
C466        O471   1.266       .  A
C466        C605   1.433       .  S
C467        C604   1.433       .  S
O469        C472   1.267       .  A
O470        C472   1.266       .  A
C472        C592   1.433       .  S
O473        C478   1.266       .  A
O474        C476   1.266       .  A
C475        O477   1.267       .  A
C475        C593   1.434       .  S
C476        C600   1.434       .  S
C478        C585   1.433       .  S
C479        C582   1.434       .  S
C479        N480   1.356   1_554  A
C479        N484   1.357       .  A
N480        C481   1.356       .  A
C481        C608   1.434       .  S
C481        N482   1.357       .  A
N482        C483   1.357       .  A
C483        C583   1.435       .  S
C483        N484   1.357   1_556  A
N486        C487   1.357       .  A
C487        C584   1.435       .  S
C487        N488   1.357       .  A
C491        C596   1.434       .  S
C491        N492   1.357       .  A
C493        C578   1.435       .  S
C493        N494   1.357   1_556  A
N494        C495   1.357       .  A
C495        C574   1.434       .  S
C495        N496   1.356   1_554  A
C497        C567   1.434       .  S
C497        N502   1.357       .  A
N498        C499   1.356   1_554  A
C499        C588   1.434       .  S
C499        N500   1.357       .  A
N500        C501   1.357   1_556  A
C501        C576   1.435       .  S
Fe503       O519   2.063       .  S
Fe503       O509   2.063       .  S
Fe503       O516   2.062       .  S
Fe503       O508   2.063       .  S
Fe503       O514   1.984       .  S
Fe504       O507   2.063       .  S
Fe504       O511   2.064       .  S
Fe504       O515   2.064       .  S
Fe504       O520   2.063       .  S
Fe504       O514   1.983       .  S
Fe505       O523   2.064       .  S
Fe505       O510   2.064       .  S
Fe505       O517   2.063       .  S
Fe505       O506   2.063       .  S
Fe505       O514   1.984       .  S
O506        C513   1.266       .  A
O507        C521   1.266       .  A
O508        C513   1.267       .  A
O509        C512   1.267       .  A
O510        C522   1.267       .  A
O511        C524   1.267       .  A
C512        O517   1.266       .  A
C512        C579   1.433       .  S
C513        C563   1.433       .  S
O515        C518   1.267       .  A
O516        C518   1.266       .  A
C518        C555   1.433       .  S
O519        C524   1.266       .  A
O520        C522   1.266       .  A
C521        O523   1.267       .  A
C521        C570   1.434       .  S
C522        C559   1.434       .  S
C524        C571   1.433       .  S
C525        C566   1.434       .  S
C525        N526   1.356       .  A
C525        N530   1.357       .  A
N526        C527   1.356       .  A
C527        C601   1.434       .  S
C527        N528   1.357       .  A
N528        C529   1.357       .  A
C529        C553   1.435       .  S
C529        N530   1.357       .  A
C533        C552   1.435       .  S
N534        C535   1.357       .  A
C535        C554   1.435       .  S
C535        N536   1.357       .  A
C537        C597   1.434       .  S
C537        N538   1.357       .  A
N538        C539   1.357       .  A
C539        C551   1.435       .  S
N540        C541   1.357       .  A
C541        C558   1.434       .  S
C541        N542   1.356       .  A
C543        C562   1.434       .  S
C543        N548   1.357       .  A
N544        C545   1.356       .  A
C545        C589   1.434       .  S
C545        N546   1.357       .  A
N546        C547   1.357       .  A
C547        C550   1.435       .  S
C549        C550   1.206       .  T
C551        C552   1.206       .  T
C553        C554   1.206       .  T
C555        C556   1.205       .  T
C556        C557   1.410       .  S
C557        C558   1.205       .  T
C559        C560   1.205       .  T
C560        C561   1.411       .  S
C561        C562   1.205       .  T
C563        C564   1.205       .  T
C564        C565   1.410       .  S
C565        C566   1.205       .  T
C567        C568   1.205       .  T
C568        C569   1.411       .  S
C569        C570   1.205       .  T
C571        C572   1.205       .  T
C572        C573   1.410       .  S
C573        C574   1.205       .  T
C575        C576   1.206       .  T
C577        C578   1.206       .  T
C579        C580   1.205       .  T
C580        C581   1.410       .  S
C581        C582   1.205       .  T
C583        C584   1.206       .  T
C585        C586   1.205       .  T
C586        C587   1.410       .  S
C587        C588   1.205       .  T
C589        C590   1.205       .  T
C590        C591   1.410       .  S
C591        C592   1.205       .  T
C593        C594   1.205       .  T
C594        C595   1.411       .  S
C595        C596   1.205       .  T
C597        C598   1.205       .  T
C598        C599   1.411       .  S
C599        C600   1.205       .  T
C601        C602   1.205       .  T
C602        C603   1.410       .  S
C603        C604   1.205       .  T
C605        C606   1.205       .  T
C606        C607   1.410       .  S
C607        C608   1.205       .  T
