geometry optimzed in LAMMPS
_audit_creation_date              2020-11-30 
_audit_creation_method            'lammps2cif' 
_symmetry_space_group_name_H-M    'P1' 
_symmetry_Int_Tables_number       1 
_symmetry_cell_setting            triclinic 
loop_ 
_symmetry_equiv_pos_as_xyz 
  x,y,z 
_cell_length_a                    28.54934348 
_cell_length_b                    28.78534357742465 
_cell_length_c                    63.83662975085809 
_cell_angle_alpha                 90.32893585363591 
_cell_angle_beta                  89.33875951479772 
_cell_angle_gamma                 90.5571445983322 
loop_ 
_atom_site_label 
_atom_site_type_symbol 
_atom_site_fract_x 
_atom_site_fract_y 
_atom_site_fract_z 
_atom_site_charge 
N1          N  0.75399109  0.40583685  0.82140173    -0.27700
N2          N  0.75114060  0.37546199  0.80582541    -0.35600
C3          C  0.77796839  0.39033991  0.78976783     0.00600
C4          C  0.79925923  0.43181628  0.79543196     0.06700
C5          C  0.78391215  0.44006763  0.81579191    -0.06400
H6          H  0.77873957  0.37415698  0.77445936     0.07300
H7          H  0.79069741  0.47075686  0.82519404     0.08500
Cu8        Cu  0.70488138  0.31977262  0.80435346     0.44200
Cu9        Cu  0.70697917  0.40860327  0.84646681     0.42000
Cu10       Cu  0.60393418  0.34044847  0.83493410     0.43900
N11         N  0.64559951  0.27830124  0.80226101    -0.35100
N12         N  0.60721363  0.28847174  0.81293692    -0.29300
C13         C  0.57229676  0.26029799  0.80688119    -0.05400
C14         C  0.58951309  0.23009702  0.79182829     0.06800
C15         C  0.63635267  0.24243271  0.78928351     0.00600
H16         H  0.53652762  0.26254866  0.81263707     0.08200
H17         H  0.66130909  0.22768661  0.77830962     0.07300
N18         N  0.60670642  0.38939855  0.85831196    -0.36500
N19         N  0.64451539  0.41364823  0.86332735    -0.28700
C20         C  0.63383334  0.44181462  0.87957141    -0.03900
C21         C  0.58712988  0.43454200  0.88486202     0.04700
C22         C  0.57108718  0.40129283  0.87102195     0.02800
H23         H  0.65809463  0.46588789  0.88689343     0.07900
H24         H  0.53618451  0.38672327  0.87025823     0.06700
N25         N  0.06901611  0.34428987  0.65684638    -0.27700
N26         N  0.10964619  0.35389391  0.66560753    -0.35600
C27         C  0.10746634  0.39662127  0.67437430     0.00600
C28         C  0.06266437  0.41416515  0.67145907     0.06700
C29         C  0.03953959  0.37928696  0.66052430    -0.06400
H30         H  0.13654155  0.41327070  0.68220483     0.07300
H31         H  0.00348946  0.37904384  0.65560376     0.08500
Cu32       Cu  0.16224706  0.30440359  0.66746337     0.44200
Cu33       Cu  0.05480756  0.28716268  0.63820687     0.42000
Cu34       Cu  0.13536670  0.19638369  0.63821107     0.43900
N35         N  0.19826783  0.24205907  0.67039596    -0.35100
N36         N  0.18790370  0.20350890  0.65994358    -0.29300
C37         C  0.21679252  0.16955121  0.66578181    -0.05400
C38         C  0.24660725  0.18725740  0.68071847     0.06800
C39         C  0.23408720  0.23331580  0.68328756     0.00600
H40         H  0.21631679  0.13458738  0.65948000     0.08200
H41         H  0.24987858  0.25857062  0.69373584     0.07300
N42         N  0.08142966  0.19863655  0.61704757    -0.36500
N43         N  0.05134885  0.23311330  0.61686931    -0.28700
C44         C  0.02329040  0.22815074  0.60021010    -0.03900
C45         C  0.03634976  0.18834839  0.58946115     0.04700
C46         C  0.07317424  0.17036706  0.60065976     0.02800
H47         H  0.99683213  0.25271482  0.59574646     0.07900
H48         H  0.09372744  0.14014782  0.59667386     0.06700
N49         N  0.13790791  0.71363490  0.81266095    -0.27700
N50         N  0.15799509  0.72502246  0.79465502    -0.35600
C51         C  0.13100878  0.70995216  0.77893274     0.00600
C52         C  0.09042099  0.69012619  0.78722036     0.06700
C53         C  0.09628447  0.69305628  0.80879598    -0.06400
H54         H  0.13995932  0.71446423  0.76256724     0.07300
H55         H  0.07188490  0.68204298  0.82088403     0.08500
Cu56       Cu  0.21513174  0.76960665  0.79176281     0.44200
Cu57       Cu  0.17126464  0.72283004  0.84116607     0.42000
Cu58       Cu  0.26896109  0.80427276  0.83932562     0.43900
N59         N  0.26186976  0.82506772  0.79368737    -0.35100
N60         N  0.28137493  0.83798371  0.81147561    -0.29300
C61         C  0.30990924  0.87454460  0.80800575    -0.05400
C62         C  0.30791018  0.88556444  0.78700868     0.06800
C63         C  0.27699703  0.85360149  0.77837059     0.00600
H64         H  0.33085951  0.89156794  0.81985301     0.08200
H65         H  0.26642422  0.85120361  0.76217949     0.07300
N66         N  0.25797408  0.75739129  0.86309323    -0.36500
N67         N  0.22297561  0.72697587  0.86380060    -0.28700
C68         C  0.23079362  0.69680407  0.87937516    -0.03900
C69         C  0.27245505  0.70923365  0.88884987     0.04700
C70         C  0.28867087  0.74773076  0.87818256     0.02800
H71         H  0.20927148  0.66640794  0.88272270     0.07900
H72         H  0.32189643  0.76532279  0.88023856     0.06700
N73         N  0.60045282  0.89997556  0.62986047    -0.27700
N74         N  0.59290360  0.86393085  0.64224709    -0.35600
C75         C  0.56194923  0.87598048  0.65727566     0.00600
C76         C  0.55025972  0.92205468  0.65448767     0.06700
C77         C  0.57502366  0.93602539  0.63686954    -0.06400
H78         H  0.55268551  0.85446196  0.67058458     0.07300
H79         H  0.57777914  0.97096287  0.63077877     0.08500
Cu80       Cu  0.63437942  0.80520566  0.64232815     0.44200
Cu81       Cu  0.65097726  0.90218198  0.60641570     0.42000
Cu82       Cu  0.72835178  0.80533218  0.60388999     0.43900
N83         N  0.69083354  0.76050421  0.64338036    -0.35100
N84         N  0.72450040  0.76026579  0.62898116    -0.29300
C85         C  0.75929073  0.73294790  0.63539026    -0.05400
C86         C  0.74735023  0.71559868  0.65487684     0.06800
C87         C  0.70361850  0.73352437  0.65948332     0.00600
H88         H  0.79253435  0.72925490  0.62733102     0.08200
H89         H  0.68429941  0.73019221  0.67408578     0.07300
N90         N  0.73406638  0.86163350  0.58399651    -0.36500
N91         N  0.70573551  0.89762029  0.58506000    -0.28700
C92         C  0.72069299  0.93015310  0.57144618    -0.03900
C93         C  0.76038533  0.91376265  0.56139856     0.04700
C94         C  0.76797840  0.87029270  0.56972248     0.02800
H95         H  0.70504927  0.96396636  0.56965085     0.07900
H96         H  0.79704029  0.84754366  0.56630027     0.06700
C97         C  0.88058525  0.61580400  0.70741496     0.86100
C98         C  0.91018193  0.64293405  0.72374371    -0.54200
C99         C  0.94057126  0.61586633  0.73488257     0.09000
C100        C  0.93606764  0.56369924  0.72952898     0.20000
C101        C  0.91689721  0.58897380  0.69445957    -0.54900
C102        C  0.94525396  0.56035148  0.70560447     0.09100
C103        C  0.85538080  0.57985631  0.72131279    -0.54400
C104        C  0.88373310  0.55279130  0.73293825     0.09700
H105        H  0.90714174  0.67983403  0.72676536     0.14200
H106        H  0.95872268  0.54114138  0.73892753    -0.00100
H107        H  0.92044354  0.59387683  0.67769417     0.14500
H108        H  0.81754889  0.57835015  0.72313764     0.14300
C109        C  0.46746098  0.10108293  0.74536332     0.86100
C110        C  0.42646203  0.12502454  0.73470710    -0.54200
C111        C  0.39888799  0.09646953  0.72278420     0.09000
C112        C  0.41425666  0.04513435  0.72308938     0.20000
C113        C  0.44501524  0.06038886  0.75782039    -0.54900
C114        C  0.41584618  0.03222267  0.74645664     0.09100
C115        C  0.49335962  0.07523795  0.72767267    -0.54400
C116        C  0.46623630  0.04579739  0.71601627     0.09700
H117        H  0.42032303  0.16209240  0.73615236     0.14200
H118        H  0.39177593  0.02140774  0.71375323    -0.00100
H119        H  0.45281589  0.05238421  0.77394540     0.14500
H120        H  0.53090124  0.07831506  0.72514293     0.14300
O121        O  0.35594751  0.56305309  0.99968786    -0.73300
O122        O  0.43192616  0.50208993  0.95393319    -0.74300
O123        O  0.42725241  0.49410366  0.99805444    -0.62900
O124        O  0.36031375  0.56895289  0.95556592    -0.71400
O125        O  0.41484840  0.62435039  0.95762574    -0.70900
O126        O  0.48084976  0.55007404  0.00121683    -0.62200
O127        O  0.48638206  0.55691073  0.95750618    -0.74700
O128        O  0.40989497  0.61892784  0.00150283    -0.73500
Cu129      Cu  0.39192508  0.53004020  0.97678201     1.04600
Cu130      Cu  0.44983562  0.58948073  0.97961814     1.04300
C131        C  0.37063414  0.60162462  0.00733124     0.92900
C132        C  0.47142620  0.52002117  0.94860445     0.92000
C133        C  0.46508631  0.50974440  0.00600534     0.84100
C134        C  0.37699297  0.60816728  0.94981437     0.90400
O135        O  0.93618198  0.12364006  0.50138011    -0.73300
O136        O  0.88999570  0.04869732  0.45232236    -0.74300
O137        O  0.86897264  0.05163097  0.49600493    -0.62900
O138        O  0.95681642  0.12024311  0.45737582    -0.71400
O139        O  0.01211673  0.06876781  0.46354756    -0.70900
O140        O  0.92367777  0.99877482  0.50122575    -0.62200
O141        O  0.94543154  0.99664451  0.45776457    -0.74700
O142        O  0.99038921  0.07051090  0.50703935    -0.73500
Cu143      Cu  0.91111473  0.08799966  0.47660297     1.04600
Cu144      Cu  0.96984559  0.03193379  0.48260310     1.04300
C145        C  0.97011841  0.10831793  0.51215586     0.92900
C146        C  0.91072060  0.01106167  0.44725964     0.92000
C147        C  0.88256157  0.01434219  0.50471704     0.84100
C148        C  0.99793933  0.10464575  0.45390195     0.90400
N149        N  0.59799300  0.27253189  0.14068296    -0.27700
N150        N  0.60704935  0.29321590  0.15873118    -0.35600
C151        C  0.59330021  0.26523776  0.17444616     0.00600
C152        C  0.57619049  0.22392660  0.16606660     0.06700
C153        C  0.58030111  0.22988988  0.14451643    -0.06400
H154        H  0.59553316  0.27462307  0.19083003     0.07300
H155        H  0.57065436  0.20535428  0.13239336     0.08500
Cu156      Cu  0.64360675  0.35550329  0.16149215     0.44200
Cu157      Cu  0.60230040  0.30651048  0.11200423     0.42000
Cu158      Cu  0.66603554  0.41526916  0.11373904     0.43900
N159        N  0.69315751  0.40832321  0.15860412    -0.35100
N160        N  0.70190938  0.42972308  0.14071268    -0.29300
C161        C  0.73817669  0.45925138  0.14311487    -0.05400
C162        C  0.75306326  0.45606840  0.16352443     0.06800
C163        C  0.72387495  0.42355550  0.17295446     0.00600
H164        H  0.75335583  0.48040584  0.13078742     0.08200
H165        H  0.72597452  0.41068137  0.18881381     0.07300
N166        N  0.62184383  0.39676326  0.08990246    -0.36500
N167        N  0.59799735  0.35722709  0.08896727    -0.28700
C168        C  0.56767786  0.35953177  0.07298825    -0.03900
C169        C  0.57307693  0.40255464  0.06356470     0.04700
C170        C  0.60771703  0.42505022  0.07466944     0.02800
H171        H  0.54162491  0.33308596  0.06933955     0.07900
H172        H  0.61944492  0.46054695  0.07275052     0.06700
N173        N  0.07876254  0.28623822  0.29693274    -0.27700
N174        N  0.10827704  0.27972477  0.28111946    -0.35600
C175        C  0.09753736  0.30864517  0.26549776     0.00600
C176        C  0.05942469  0.33459135  0.27181851     0.06700
C177        C  0.04835960  0.31955466  0.29181348    -0.06400
H178        H  0.11774881  0.31256566  0.25117259     0.07300
H179        H  0.02196703  0.33369151  0.30230962     0.08500
Cu180      Cu  0.16587584  0.23728430  0.28270740     0.44200
Cu181      Cu  0.08567752  0.25414927  0.32559033     0.42000
Cu182      Cu  0.19472320  0.19212733  0.33370088     0.43900
N183        N  0.22474081  0.19854036  0.28835901    -0.35100
N184        N  0.23579639  0.18202605  0.30692971    -0.29300
C185        C  0.27518817  0.15694905  0.30491288    -0.05400
C186        C  0.28947091  0.15819322  0.28411543     0.06800
C187        C  0.25673426  0.18479126  0.27409952     0.00600
H188        H  0.29148412  0.13822732  0.31748720     0.08200
H189        H  0.25544765  0.19241189  0.25753682     0.07300
N190        N  0.14298101  0.20083311  0.35659212    -0.36500
N191        N  0.10274582  0.22177773  0.35325980    -0.28700
C192        C  0.07443371  0.21575551  0.36999947    -0.03900
C193        C  0.09787084  0.18992090  0.38467355     0.04700
C194        C  0.14146248  0.18147172  0.37572633     0.02800
H195        H  0.03840410  0.22697526  0.37089508     0.07900
H196        H  0.16881102  0.16019015  0.38205340     0.06700
N197        N  0.26511087  0.87042564  0.13345828    -0.27700
N198        N  0.24184608  0.86415343  0.15128048    -0.35600
C199        C  0.26250693  0.88961533  0.16637275     0.00600
C200        C  0.30034582  0.91336443  0.15765690     0.06700
C201        C  0.30052519  0.90069600  0.13669219    -0.06400
H202        H  0.25196250  0.88933410  0.18269494     0.07300
H203        H  0.32581528  0.91095175  0.12485085     0.08500
Cu204      Cu  0.18555995  0.81833135  0.15511532     0.44200
Cu205      Cu  0.25459509  0.83125040  0.10647468     0.42000
Cu206      Cu  0.16763544  0.74180263  0.11129031     0.43900
N207        N  0.13645742  0.76443955  0.15516657    -0.35100
N208        N  0.13147074  0.73579472  0.13910184    -0.29300
C209        C  0.10266226  0.70074137  0.14454412    -0.05400
C210        C  0.08789851  0.70776654  0.16497868     0.06800
C211        C  0.10976848  0.74879951  0.17120992     0.00600
H212        H  0.09479830  0.67114371  0.13463122     0.08200
H213        H  0.10816805  0.76488700  0.18655018     0.07300
N214        N  0.21532419  0.74430188  0.08706168    -0.36500
N215        N  0.24762835  0.77716584  0.08504583    -0.28700
C216        C  0.27808172  0.76447198  0.06987531    -0.03900
C217        C  0.26429251  0.72135650  0.06222821     0.04700
C218        C  0.22427016  0.70982403  0.07341030     0.02800
H219        H  0.30991728  0.78331812  0.06592326     0.07900
H220        H  0.20543200  0.67709559  0.07293909     0.06700
N221        N  0.68935583  0.87563112  0.30589745    -0.27700
N222        N  0.67451973  0.83450234  0.29934615    -0.35600
C223        C  0.63747054  0.84023726  0.28675732     0.00600
C224        C  0.62905677  0.88744612  0.28508073     0.06700
C225        C  0.66307981  0.90859410  0.29726965    -0.06400
H226        H  0.61852204  0.81214033  0.27926134     0.07300
H227        H  0.66835668  0.94544204  0.29974030     0.08500
Cu228      Cu  0.71000294  0.77395844  0.30573485     0.44200
Cu229      Cu  0.74269539  0.88609755  0.32721734     0.42000
Cu230      Cu  0.81282633  0.78844906  0.33899440     0.43900
N231        N  0.76354508  0.72626629  0.30777204    -0.35100
N232        N  0.80073569  0.73174375  0.31974779    -0.29300
C233        C  0.83293285  0.70013656  0.31423813    -0.05400
C234        C  0.81542351  0.67385912  0.29790109     0.06800
C235        C  0.77134558  0.69115403  0.29424160     0.00600
H236        H  0.86837703  0.69981041  0.32002638     0.08200
H237        H  0.74894716  0.68244314  0.28120505     0.07300
N238        N  0.81971605  0.85138660  0.35441646    -0.36500
N239        N  0.79326164  0.88747871  0.35025427    -0.28700
C240        C  0.80377635  0.92221843  0.36362148    -0.03900
C241        C  0.83885021  0.90730564  0.37672111     0.04700
C242        C  0.84828174  0.86228701  0.37033886     0.02800
H243        H  0.78637419  0.95540121  0.36412733     0.07900
H244        H  0.87323394  0.83882004  0.37708273     0.06700
C245        C  0.97569639  0.49527190  0.23179997     0.86100
C246        C  0.00631415  0.52927949  0.21909799    -0.54200
C247        C  0.98350123  0.56769301  0.21203671     0.09000
C248        C  0.93083827  0.56778768  0.21787593     0.20000
C249        C  0.95189906  0.52473401  0.24895704    -0.54900
C250        C  0.92867207  0.56252180  0.24187078     0.09100
C251        C  0.93402422  0.48348075  0.21749742    -0.54400
C252        C  0.91138626  0.52112243  0.20959470     0.09700
H253        H  0.04330227  0.52342958  0.21608444     0.14200
H254        H  0.91208511  0.59871779  0.21221881    -0.00100
H255        H  0.95103188  0.51506291  0.26537118     0.14500
H256        H  0.92104718  0.44855228  0.21470051     0.14300
C257        C  0.49841628  0.00039996  0.23669560     0.86100
C258        C  0.52478327  0.03673671  0.22359116    -0.54200
C259        C  0.49719487  0.06786240  0.21355907     0.09000
C260        C  0.44423542  0.05841101  0.21701530     0.20000
C261        C  0.46409835  0.02728878  0.25088374    -0.54900
C262        C  0.43666928  0.05811147  0.24092218     0.09100
C263        C  0.46449689  0.97678780  0.22110787    -0.54400
C264        C  0.43633920  0.00700921  0.21037836     0.09700
H265        H  0.56273597  0.03730924  0.22229049     0.14200
H266        H  0.42180835  0.08384218  0.20906332    -0.00100
H267        H  0.45880227  0.01995829  0.26739502     0.14500
H268        H  0.46186717  0.93940897  0.21909507     0.14300
C269        C  0.58637037  0.90297639  0.25133874    -0.02300
C270        C  0.59279330  0.91191541  0.27289415     0.07400
C271        C  0.56997752  0.94997717  0.28219028    -0.02400
C272        C  0.54562570  0.98143003  0.26984147    -0.02400
C273        C  0.53266372  0.96947084  0.24897739     0.07600
C274        C  0.55670476  0.93156781  0.23944192    -0.02600
Br275      Br  0.55753887  0.92299597  0.20953619    -0.01100
Br276      Br  0.62044522  0.85352459  0.23753116    -0.01200
Br277      Br  0.54454970  0.04476101  0.28037435    -0.01100
Br278      Br  0.57016777  0.95915819  0.31224751    -0.01100
C279        C  0.87762864  0.66693642  0.27041904    -0.02300
C280        C  0.84329042  0.64551833  0.28322631     0.07400
C281        C  0.83549344  0.59735089  0.28189184    -0.02400
C282        C  0.86267501  0.57029534  0.26805715    -0.02400
C283        C  0.89897414  0.59134378  0.25597445     0.07600
C284        C  0.90609777  0.63983896  0.25717665    -0.02600
Br285      Br  0.95584237  0.66967829  0.24149622    -0.01100
Br286      Br  0.88439354  0.73382873  0.27030970    -0.01200
Br287      Br  0.84702850  0.50517661  0.26457263    -0.01100
Br288      Br  0.78763872  0.56855817  0.29918340    -0.01100
C289        C  0.41661988  0.95819199  0.17874540    -0.02300
C290        C  0.40170414  0.99000281  0.19435068     0.07400
C291        C  0.35365174  0.00229579  0.19498427    -0.02400
C292        C  0.32101705  0.97850887  0.18226052    -0.02400
C293        C  0.33562459  0.94190609  0.16902643     0.07600
C294        C  0.38388117  0.93249271  0.16700852    -0.02600
Br295      Br  0.40600747  0.88185469  0.14964421    -0.01100
Br296      Br  0.48198781  0.95379732  0.17131770    -0.01200
Br297      Br  0.25604856  0.99710083  0.18250587    -0.01100
Br298      Br  0.33059232  0.05198042  0.21237697    -0.01100
C299        C  0.05014747  0.62583653  0.20864778    -0.02300
C300        C  0.00837413  0.60614690  0.20050000     0.07400
C301        C  0.99140228  0.62301248  0.18122941    -0.02400
C302        C  0.01660808  0.65742462  0.17008929    -0.02400
C303        C  0.05953190  0.67481216  0.17775527     0.07600
C304        C  0.07627562  0.65868650  0.19705742    -0.02600
Br305      Br  0.13703166  0.67830949  0.20714856    -0.01100
Br306      Br  0.07095321  0.61119720  0.23644417    -0.01200
Br307      Br  0.99146392  0.68133235  0.14430654    -0.01100
Br308      Br  0.93466227  0.59891097  0.16904779    -0.01100
C309        C  0.03077823  0.45931486  0.25905714    -0.02300
C310        C  0.00357412  0.45394589  0.24055921     0.07400
C311        C  0.00383521  0.40947776  0.23064995    -0.02400
C312        C  0.01929603  0.37023387  0.24151679    -0.02400
C313        C  0.04080373  0.37546381  0.26103523     0.07600
C314        C  0.04879267  0.42018574  0.26923406    -0.02600
Br315      Br  0.08679018  0.42794162  0.29395355    -0.01100
Br316      Br  0.04814174  0.51962688  0.27011191    -0.01200
Br317      Br  0.01065476  0.30883422  0.22965560    -0.01100
Br318      Br  0.99564629  0.40193246  0.20089719    -0.01100
C319        C  0.36211931  0.05935765  0.26226310    -0.02300
C320        C  0.39931830  0.08391045  0.25232531     0.07400
C321        C  0.40115375  0.13280232  0.25369745    -0.02400
C322        C  0.36597534  0.15700893  0.26472930    -0.02400
C323        C  0.32819116  0.13257135  0.27399949     0.07600
C324        C  0.32613143  0.08376607  0.27260839    -0.02600
Br325      Br  0.27217729  0.05047192  0.28351924    -0.01100
Br326      Br  0.35822655  0.99228735  0.26058360    -0.01200
Br327      Br  0.37017592  0.22369725  0.26770676    -0.01100
Br328      Br  0.45256538  0.16687040  0.24119603    -0.01100
C329        C  0.55534484  0.13438671  0.20912035    -0.02300
C330        C  0.51736309  0.10773313  0.20116768     0.07400
C331        C  0.49929218  0.11952590  0.18134925    -0.02400
C332        C  0.51636015  0.15899578  0.17059565    -0.02400
C333        C  0.55653363  0.18320315  0.17780518     0.07600
C334        C  0.57706568  0.16893821  0.19675646    -0.02600
Br335      Br  0.63725599  0.19322369  0.20547524    -0.01100
Br336      Br  0.57606528  0.12780607  0.23771098    -0.01200
Br337      Br  0.48123807  0.18112284  0.14698586    -0.01100
Br338      Br  0.45354563  0.08064389  0.16754744    -0.01100
C339        C  0.87825818  0.48608615  0.17695139    -0.02300
C340        C  0.87169018  0.51477256  0.19478382     0.07400
C341        C  0.82622227  0.53135425  0.19943765    -0.02400
C342        C  0.78737112  0.51285466  0.18873884    -0.02400
C343        C  0.79391875  0.47929989  0.17291900     0.07600
C344        C  0.83948469  0.46751561  0.16635509    -0.02600
Br345      Br  0.84900168  0.42342606  0.14382771    -0.01100
Br346      Br  0.94043658  0.47452551  0.16608952    -0.01200
Br347      Br  0.72476903  0.53311584  0.19573303    -0.01100
Br348      Br  0.81563207  0.57984989  0.21969849    -0.01100
C349        C  0.05128185  0.09877817  0.42253574    -0.02300
C350        C  0.02816180  0.12674017  0.43767035     0.07400
C351        C  0.03082093  0.17563491  0.43602194    -0.02400
C352        C  0.05506043  0.19629238  0.41907157    -0.02400
C353        C  0.07672089  0.16831987  0.40360400     0.07600
C354        C  0.07501679  0.11947514  0.40549665    -0.02600
Br355      Br  0.10089367  0.08003807  0.38371093    -0.01100
Br356      Br  0.04752172  0.03164118  0.42375700    -0.01200
Br357      Br  0.05889140  0.26318118  0.41720114    -0.01100
Br358      Br  0.00224826  0.21476064  0.45720171    -0.01100
C359        C  0.85746822  0.91373404  0.41498148    -0.02300
C360        C  0.85921468  0.93299151  0.39466433     0.07400
C361        C  0.87959170  0.97738046  0.39162879    -0.02400
C362        C  0.89621833  0.00309420  0.40888056    -0.02400
C363        C  0.89421415  0.98384886  0.42912286     0.07600
C364        C  0.87595676  0.93869864  0.43205664    -0.02600
Br365      Br  0.87479132  0.91156471  0.45966691    -0.01100
Br366      Br  0.82684212  0.85463446  0.41996813    -0.01200
Br367      Br  0.92338709  0.06408824  0.40466859    -0.01100
Br368      Br  0.88716456  0.00216792  0.36373335    -0.01100
C369        C  0.29525543  0.63970289  0.01749400    -0.02300
C370        C  0.34176201  0.62806847  0.02244321     0.07400
C371        C  0.36229663  0.64613874  0.04080774    -0.02400
C372        C  0.33674943  0.67609092  0.05401168    -0.02400
C373        C  0.29114533  0.68960689  0.04849943     0.07600
C374        C  0.27031515  0.67096686  0.03033799    -0.02600
Br375      Br  0.20850618  0.69039413  0.02232024    -0.01100
Br376      Br  0.26626322  0.61535566  0.99246079    -0.01200
Br377      Br  0.36370419  0.69626864  0.08020273    -0.01100
Br378      Br  0.42523838  0.62897342  0.04827324    -0.01100
C379        C  0.47033053  0.46253931  0.03867475    -0.02300
C380        C  0.49167152  0.48018726  0.02031371     0.07400
C381        C  0.53842265  0.46870758  0.01533166    -0.02400
C382        C  0.56428739  0.44121582  0.02907211    -0.02400
C383        C  0.54347782  0.42471950  0.04775628     0.07600
C384        C  0.49617131  0.43478804  0.05238417    -0.02600
Br385      Br  0.46749255  0.41356668  0.07818538    -0.01100
Br386      Br  0.40669898  0.47909529  0.04581209    -0.01200
Br387      Br  0.62834355  0.42572597  0.02220231    -0.01100
Br388      Br  0.56683022  0.48941326  0.98935378    -0.01100
C389        C  0.83589581  0.95483154  0.55356032    -0.02300
C390        C  0.79137949  0.93970626  0.54690624     0.07400
C391        C  0.77630648  0.94987798  0.52652636    -0.02400
C392        C  0.80577164  0.97499071  0.51275171    -0.02400
C393        C  0.85082868  0.98922191  0.51923490     0.07600
C394        C  0.86573172  0.97919288  0.53971495    -0.02600
Br395      Br  0.92617724  0.00071647  0.54930105    -0.01100
Br396      Br  0.85524637  0.94406826  0.58200139    -0.01200
Br397      Br  0.78480597  0.98819843  0.48477731    -0.01100
Br398      Br  0.71592489  0.92775573  0.51724762    -0.01100
C399        C  0.54804977  0.95806810  0.69014752    -0.02300
C400        C  0.52822712  0.95313188  0.67014202     0.07400
C401        C  0.48831113  0.97879863  0.66498432    -0.02400
C402        C  0.46810183  0.00938211  0.67977383    -0.01800
C403        C  0.48716867  0.01366094  0.70008076     0.07600
C404        C  0.52680623  0.98678021  0.70527946    -0.02600
Br405      Br  0.55038621  0.98478450  0.73362593    -0.01100
Br406      Br  0.60637576  0.92790391  0.69664703    -0.01200
Br407      Br  0.41547799  0.04613613  0.67145670    -0.01100
Br408      Br  0.46104500  0.97157228  0.63758818    -0.01100
C409        C  0.77265804  0.64397605  0.67312984    -0.02300
C410        C  0.77923844  0.69137538  0.66913085     0.07400
C411        C  0.81994855  0.71406368  0.67613178    -0.02400
C412        C  0.85419260  0.68948659  0.68713036    -0.02400
C413        C  0.84625578  0.64248010  0.69317414     0.07600
C414        C  0.80690359  0.61899105  0.68398087    -0.02600
Br415      Br  0.80176269  0.55183628  0.68248002    -0.01100
Br416      Br  0.71707836  0.61291915  0.66279397    -0.01200
Br417      Br  0.91483219  0.71867974  0.68854038    -0.01100
Br418      Br  0.82888204  0.77962814  0.67050492    -0.01100
C419        C  0.30604179  0.70232412  0.92451789    -0.02300
C420        C  0.29874879  0.68301861  0.90448697     0.07400
C421        C  0.31889480  0.64002328  0.89904556    -0.02400
C422        C  0.34467864  0.61551707  0.91392806    -0.02400
C423        C  0.35181279  0.63479202  0.93400293     0.07600
C424        C  0.33314139  0.67857121  0.93917635    -0.02600
Br425      Br  0.34342687  0.70546975  0.96653288    -0.01100
Br426      Br  0.27762862  0.76072502  0.93205901    -0.01200
Br427      Br  0.37192117  0.55637865  0.90652812    -0.01100
Br428      Br  0.31359684  0.61594403  0.87087192    -0.01100
C429        C  0.32888015  0.96947138  0.78252063    -0.02300
C430        C  0.33435974  0.92289568  0.77617766     0.07400
C431        C  0.36561671  0.91198442  0.75969246    -0.02400
C432        C  0.39175198  0.94742721  0.74972640    -0.02400
C433        C  0.38727454  0.99419787  0.75632141     0.07600
C434        C  0.35474577  0.00497031  0.77251480    -0.02600
Br435      Br  0.34129407  0.06865348  0.77977999    -0.01100
Br436      Br  0.28420270  0.98513292  0.80437117    -0.01200
Br437      Br  0.43411092  0.93032704  0.72747103    -0.01100
Br438      Br  0.37492002  0.84788460  0.75154357    -0.01100
C439        C  0.02380568  0.63220856  0.78132221    -0.02300
C440        C  0.04935559  0.67239426  0.77513527     0.07400
C441        C  0.03710116  0.69428967  0.75624604    -0.02400
C442        C  0.00590584  0.67248417  0.74249634    -0.02400
C443        C  0.97683438  0.63560120  0.74937534     0.07600
C444        C  0.98530516  0.61643734  0.76937562    -0.02600
Br445      Br  0.94492713  0.56913778  0.78110536    -0.01100
Br446      Br  0.04303935  0.59551641  0.80491278    -0.01200
Br447      Br  0.01217855  0.68712480  0.71324782    -0.01100
Br448      Br  0.05859399  0.75629861  0.74931591    -0.01100
C449        C  0.97059859  0.15970286  0.56694198    -0.02300
C450        C  0.01842408  0.17137253  0.56912856     0.07400
C451        C  0.04935053  0.16619049  0.55187163    -0.02400
C452        C  0.03320538  0.14661991  0.53301877    -0.02400
C453        C  0.98575177  0.13355463  0.53105606     0.07600
C454        C  0.95414759  0.14153371  0.54782840    -0.02600
Br455      Br  0.88865589  0.12537547  0.54511210    -0.01100
Br456      Br  0.92799302  0.16556169  0.59050456    -0.01200
Br457      Br  0.07591339  0.13906346  0.50957688    -0.01100
Br458      Br  0.11342992  0.18796857  0.55355873    -0.01100
C459        C  0.31302271  0.09953477  0.71280722    -0.02300
C460        C  0.35974251  0.11546012  0.71010588     0.07400
C461        C  0.36883292  0.15255816  0.69611275    -0.02400
C462        C  0.33182266  0.17635281  0.68678593    -0.02400
C463        C  0.28528232  0.16245842  0.69076416     0.07600
C464        C  0.27594843  0.12334749  0.70335906    -0.02600
Br465      Br  0.21193364  0.10373681  0.70853747    -0.01100
Br466      Br  0.29836398  0.04523063  0.72908007    -0.01200
Br467      Br  0.34509728  0.22697865  0.66777734    -0.01100
Br468      Br  0.43194470  0.16850132  0.68782817    -0.01100
C469        C  0.00459963  0.47733278  0.66653839    -0.02300
C470        C  0.04072218  0.45857193  0.67864922     0.07400
C471        C  0.05034178  0.47964915  0.69824017    -0.02400
C472        C  0.02340190  0.51776494  0.70524715    -0.02400
C473        C  0.98040656  0.52824445  0.69541636     0.07600
C474        C  0.97102447  0.50618437  0.67591741    -0.02600
Br475      Br  0.91054264  0.50686073  0.66271822    -0.01100
Br476      Br  0.00244845  0.46696046  0.63657446    -0.01200
Br477      Br  0.04924791  0.55716244  0.72682654    -0.01100
Br478      Br  0.09722443  0.45573349  0.71671647    -0.01100
C479        C  0.55235036  0.50520521  0.90153951    -0.02300
C480        C  0.55925887  0.45682327  0.90162348     0.07400
C481        C  0.53718041  0.42913502  0.91706800    -0.02400
C482        C  0.50792461  0.44962419  0.93229148    -0.02400
C483        C  0.50064793  0.49807240  0.93216530     0.07600
C484        C  0.52312394  0.52584175  0.91675394    -0.02600
Br485      Br  0.51230786  0.59203500  0.91554483    -0.01100
Br486      Br  0.58082506  0.54315656  0.87991507    -0.01200
Br487      Br  0.48025279  0.41106411  0.95393717    -0.01100
Br488      Br  0.54875932  0.36312905  0.91808096    -0.01100
C489        C  0.49538332  0.14158042  0.77963268    -0.02300
C490        C  0.49881345  0.13613928  0.75749721     0.07400
C491        C  0.53061367  0.16662392  0.74665624    -0.02400
C492        C  0.56053439  0.19698638  0.75781955    -0.02400
C493        C  0.56130455  0.19587538  0.77985461     0.07600
C494        C  0.52960001  0.16671492  0.79062272    -0.02600
Br495      Br  0.53244825  0.16060201  0.82077090    -0.01100
Br496      Br  0.43807271  0.13013162  0.79505504    -0.01200
Br497      Br  0.59752166  0.24296196  0.74275274    -0.01100
Br498      Br  0.53192768  0.17200126  0.71649461    -0.01100
C499        C  0.85975788  0.44733821  0.76748098    -0.02300
C500        C  0.82398154  0.46415624  0.78091384     0.07400
C501        C  0.80974065  0.51088100  0.77917768    -0.02400
C502        C  0.83201962  0.54044930  0.76465026    -0.02400
C503        C  0.86457571  0.52238086  0.74987317     0.07600
C504        C  0.87839379  0.47562258  0.75142521    -0.02600
Br505      Br  0.92062157  0.44890770  0.73094456    -0.01100
Br506      Br  0.88455276  0.38581259  0.77136448    -0.01200
Br507      Br  0.81985790  0.60650496  0.76637590    -0.01100
Br508      Br  0.75665420  0.53448934  0.79489343    -0.01100
loop_ 
_geom_bond_atom_site_label_1 
_geom_bond_atom_site_label_2 
_geom_bond_distance 
_geom_bond_site_symmetry_2 
_ccdc_geom_bond_type 
N1            N2   1.323       .  A
N1            C5   1.345       .  A
N1           Cu9   2.078       .  S
N2            C3   1.342       .  A
N2           Cu8   2.069       .  S
C3            C4   1.383       .  A
C3            H6   1.080       .  S
C4            C5   1.387       .  A
C4          C500   1.485       .  S
C5            H7   1.082       .  S
Cu8          N11   2.067       .  S
Cu9          N19   2.078       .  S
Cu10         N12   2.048       .  S
Cu10         N18   2.048       .  S
N11          N12   1.318       .  A
N11          C15   1.346       .  A
N12          C13   1.338       .  A
C13          C14   1.382       .  A
C13          H16   1.084       .  S
C14          C15   1.388       .  A
C14         C493   1.481       .  S
C15          H17   1.081       .  S
N18          N19   1.321       .  A
N18          C22   1.339       .  A
N19          C20   1.347       .  A
C20          C21   1.386       .  A
C20          H23   1.083       .  S
C21          C22   1.377       .  A
C21         C480   1.474       .  S
C22          H24   1.079       .  S
N25          N26   1.320       .  A
N25          C29   1.337       .  A
N25         Cu33   2.064       .  S
N26          C27   1.350       .  A
N26         Cu32   2.085       .  S
C27          C28   1.395       .  A
C27          H30   1.081       .  S
C28          C29   1.386       .  A
C28         C470   1.496       .  S
C29          H31   1.079       .  S
Cu32         N35   2.087       .  S
Cu33         N43   2.064       .  S
Cu34         N36   2.063       .  S
Cu34         N42   2.062       .  S
N35          N36   1.324       .  A
N35          C39   1.347       .  A
N36          C37   1.342       .  A
C37          C38   1.378       .  A
C37          H40   1.082       .  S
C38          C39   1.385       .  A
C38         C463   1.475       .  S
C39          H41   1.082       .  S
N42          N43   1.319       .  A
N42          C46   1.343       .  A
N43          C44   1.345       .  A
C44          C45   1.384       .  A
C44          H47   1.081   1_455  S
C45          C46   1.384       .  A
C45         C450   1.479       .  S
C46          H48   1.082       .  S
N49          N50   1.320       .  A
N49          C53   1.347       .  A
N49         Cu57   2.078       .  S
N50          C51   1.340       .  A
N50         Cu56   2.073       .  S
C51          C52   1.387       .  A
C51          H54   1.081       .  S
C52          C53   1.391       .  A
C52         C440   1.495       .  S
C53          H55   1.080       .  S
Cu56         N59   2.075       .  S
Cu57         N67   2.080       .  S
Cu58         N60   2.056       .  S
Cu58         N66   2.056       .  S
N59          N60   1.320       .  A
N59          C63   1.345       .  A
N60          C61   1.342       .  A
C61          C62   1.381       .  A
C61          H64   1.082       .  S
C62          C63   1.385       .  A
C62         C430   1.478       .  S
C63          H65   1.082       .  S
N66          N67   1.323       .  A
N66          C70   1.342       .  A
N67          C68   1.346       .  A
C68          C69   1.384       .  A
C68          H71   1.085       .  S
C69          C70   1.377       .  A
C69         C420   1.472       .  S
C70          H72   1.080       .  S
N73          N74   1.323       .  A
N73          C77   1.344       .  A
N73         Cu81   2.067       .  S
N74          C75   1.343       .  A
N74         Cu80   2.073       .  S
C75          C76   1.384       .  A
C75          H78   1.083       .  S
C76          C77   1.381       .  A
C76         C400   1.477       .  S
C77          H79   1.082       .  S
Cu80         N83   2.074       .  S
Cu81         N91   2.067       .  S
Cu82         N84   2.068       .  S
Cu82         N90   2.069       .  S
N83          N84   1.322       .  A
N83          C87   1.348       .  A
N84          C85   1.342       .  A
C85          C86   1.381       .  A
C85          H88   1.080       .  S
C86          C87   1.383       .  A
C86         C410   1.477       .  S
C87          H89   1.082       .  S
N90          N91   1.321       .  A
N90          C94   1.344       .  A
N91          C92   1.344       .  A
C92          C93   1.381       .  A
C92          H95   1.082       .  S
C93          C94   1.382       .  A
C93         C390   1.474       .  S
C94          H96   1.082       .  S
C97          C98   1.552       .  S
C97         C103   1.535       .  S
C97         C101   1.531       .  S
C97         C413   1.556       .  S
C98         H105   1.083       .  S
C98          C99   1.378       .  D
C99         C100   1.543       .  S
C99         C443   1.502       .  S
C100        C104   1.537       .  S
C100        C102   1.549       .  S
C100        H106   1.105       .  S
C101        H107   1.084       .  S
C101        C102   1.369       .  D
C102        C473   1.510       .  S
C103        H108   1.085       .  S
C103        C104   1.359       .  D
C104        C503   1.491       .  S
C109        C110   1.532       .  S
C109        C115   1.535       .  S
C109        C113   1.549       .  S
C109        C490   1.552       .  S
C110        H117   1.086       .  S
C110        C111   1.367       .  D
C111        C112   1.546       .  S
C111        C460   1.497       .  S
C112        C116   1.546       .  S
C112        C114   1.541       .  S
C112        H118   1.109       .  S
C113        H119   1.082       .  S
C113        C114   1.368       .  D
C114        C433   1.496   1_545  S
C115        H120   1.085       .  S
C115        C116   1.366       .  D
C116        C403   1.495       .  S
O121       Cu129   2.016       .  S
O121        C131   1.279   1_556  A
O122       Cu129   2.011       .  S
O122        C132   1.279       .  A
O123       Cu129   2.000       .  S
O123        C133   1.276   1_556  A
O124       Cu129   1.992       .  S
O124        C134   1.275       .  A
O125       Cu130   2.011       .  S
O125        C134   1.278       .  A
O126       Cu130   2.009   1_554  S
O126        C133   1.278       .  A
O127       Cu130   1.982       .  S
O127        C132   1.274       .  A
O128       Cu130   1.985   1_554  S
O128        C131   1.275       .  A
Cu129      Cu130   2.375       .  S
C131        C370   1.475       .  S
C132        C483   1.476       .  S
C133        C380   1.474       .  S
C134        C423   1.469       .  S
O135       Cu143   2.015       .  S
O135        C145   1.278       .  A
O136       Cu143   2.009       .  S
O136        C146   1.278       .  A
O137       Cu143   2.008       .  S
O137        C147   1.277       .  A
O138       Cu143   2.006       .  S
O138        C148   1.278       .  A
O139       Cu144   2.004   1_455  S
O139        C148   1.277   1_455  A
O140       Cu144   2.003   1_565  S
O140        C147   1.277   1_565  A
O141       Cu144   2.006   1_565  S
O141        C146   1.277   1_565  A
O142       Cu144   2.000       .  S
O142        C145   1.277       .  A
Cu143      Cu144   2.374       .  S
C145        C453   1.476       .  S
C146        C363   1.473   1_545  S
C147        C393   1.476   1_545  S
C148        C350   1.483   1_655  S
N149        N150   1.321       .  A
N149        C153   1.345       .  A
N149       Cu157   2.082       .  S
N150        C151   1.343       .  A
N150       Cu156   2.073       .  S
C151        C152   1.388       .  A
C151        H154   1.081       .  S
C152        C153   1.391       .  A
C152        C333   1.496       .  S
C153        H155   1.081       .  S
Cu156       N159   2.074       .  S
Cu157       N167   2.084       .  S
Cu158       N160   2.052       .  S
Cu158       N166   2.053       .  S
N159        N160   1.321       .  A
N159        C163   1.344       .  A
N160        C161   1.343       .  A
C161        C162   1.379       .  A
C161        H164   1.082       .  S
C162        C163   1.383       .  A
C162        C343   1.471       .  S
C163        H165   1.083       .  S
N166        N167   1.322       .  A
N166        C170   1.340       .  A
N167        C168   1.348       .  A
C168        C169   1.386       .  A
C168        H171   1.085       .  S
C169        C170   1.378       .  A
C169        C383   1.476       .  S
C170        H172   1.079       .  S
N173        N174   1.321       .  A
N173        C177   1.344       .  A
N173       Cu181   2.066       .  S
N174        C175   1.343       .  A
N174       Cu180   2.062       .  S
C175        C176   1.381       .  A
C175        H178   1.082       .  S
C176        C177   1.382       .  A
C176        C313   1.473       .  S
C177        H179   1.083       .  S
Cu180       N183   2.062       .  S
Cu181       N191   2.067       .  S
Cu182       N184   2.082       .  S
Cu182       N190   2.082       .  S
N183        N184   1.323       .  A
N183        C187   1.343       .  A
N184        C185   1.347       .  A
C185        C186   1.385       .  A
C185        H188   1.082       .  S
C186        C187   1.379       .  A
C186        C323   1.475       .  S
C187        H189   1.082       .  S
N190        N191   1.322       .  A
N190        C194   1.346       .  A
N191        C192   1.343       .  A
C192        C193   1.382       .  A
C192        H195   1.082       .  S
C193        C194   1.386       .  A
C193        C353   1.482       .  S
C194        H196   1.080       .  S
N197        N198   1.323       .  A
N197        C201   1.345       .  A
N197       Cu205   2.077       .  S
N198        C199   1.345       .  A
N198       Cu204   2.082       .  S
C199        C200   1.386       .  A
C199        H202   1.081       .  S
C200        C201   1.385       .  A
C200        C293   1.487       .  S
C201        H203   1.080       .  S
Cu204       N207   2.081       .  S
Cu205       N215   2.076       .  S
Cu206       N208   2.051       .  S
Cu206       N214   2.050       .  S
N207        N208   1.320       .  A
N207        C211   1.346       .  A
N208        C209   1.340       .  A
C209        C210   1.381       .  A
C209        H212   1.082       .  S
C210        C211   1.389       .  A
C210        C303   1.483       .  S
C211        H213   1.082       .  S
N214        N215   1.321       .  A
N214        C218   1.341       .  A
N215        C216   1.345       .  A
C216        C217   1.386       .  A
C216        H219   1.082       .  S
C217        C218   1.379       .  A
C217        C373   1.476       .  S
C218        H220   1.081       .  S
N221        N222   1.321       .  A
N221        C225   1.340       .  A
N221       Cu229   2.073       .  S
N222        C223   1.348       .  A
N222       Cu228   2.069       .  S
C223        C224   1.387       .  A
C223        H226   1.081       .  S
C224        C225   1.386       .  A
C224        C270   1.487       .  S
C225        H227   1.081       .  S
Cu228       N231   2.070       .  S
Cu229       N239   2.073       .  S
Cu230       N232   2.066       .  S
Cu230       N238   2.066       .  S
N231        N232   1.323       .  A
N231        C235   1.344       .  A
N232        C233   1.342       .  A
C233        C234   1.380       .  A
C233        H236   1.081       .  S
C234        C235   1.381       .  A
C234        C280   1.471       .  S
C235        H237   1.082       .  S
N238        N239   1.320       .  A
N238        C242   1.344       .  A
N239        C240   1.345       .  A
C240        C241   1.385       .  A
C240        H243   1.081       .  S
C241        C242   1.384       .  A
C241        C360   1.481       .  S
C242        H244   1.081       .  S
C245        C246   1.535   1_655  S
C245        C251   1.542       .  S
C245        C249   1.537       .  S
C245        C310   1.548   1_655  S
C246        H253   1.086       .  S
C246        C247   1.370   1_455  D
C247        C248   1.545       .  S
C247        C300   1.501   1_655  S
C248        C252   1.542       .  S
C248        C250   1.541       .  S
C248        H254   1.108       .  S
C249        H255   1.086       .  S
C249        C250   1.362       .  D
C250        C283   1.485       .  S
C251        H256   1.083       .  S
C251        C252   1.369       .  D
C252        C340   1.493       .  S
C257        C258   1.530       .  S
C257        C263   1.546   1_545  S
C257        C261   1.538       .  S
C257        C273   1.551   1_545  S
C258        H265   1.086       .  S
C258        C259   1.366       .  D
C259        C260   1.547       .  S
C259        C330   1.504       .  S
C260        C264   1.552       .  S
C260        C262   1.539       .  S
C260        H266   1.107       .  S
C261        H267   1.085       .  S
C261        C262   1.355       .  D
C262        C320   1.487       .  S
C263        H268   1.085       .  S
C263        C264   1.380   1_565  D
C264        C290   1.507   1_545  S
C269        C270   1.412       .  A
C269        C274   1.417       .  A
C269       Br276   1.935       .  S
C270        C271   1.405       .  A
C271        C272   1.399       .  A
C271       Br278   1.935       .  S
C272        C273   1.426       .  A
C272       Br277   1.940   1_565  S
C273        C274   1.425       .  A
C274       Br275   1.923       .  S
C279        C280   1.409       .  A
C279        C284   1.404       .  A
C279       Br286   1.933       .  S
C280        C281   1.404       .  A
C281        C282   1.406       .  A
C281       Br288   1.930       .  S
C282        C283   1.418       .  A
C282       Br287   1.935       .  S
C283        C284   1.411       .  A
C284       Br285   1.926       .  S
C289        C290   1.414       .  A
C289        C294   1.407       .  A
C289       Br296   1.925       .  S
C290        C291   1.420   1_565  A
C291        C292   1.413   1_545  A
C291       Br298   1.922       .  S
C292        C293   1.410       .  A
C292       Br297   1.935       .  S
C293        C294   1.411       .  A
C294       Br295   1.933       .  S
C299        C300   1.418       .  A
C299        C304   1.407       .  A
C299       Br306   1.928       .  S
C300        C301   1.417   1_455  A
C301        C302   1.410   1_655  A
C301       Br308   1.926       .  S
C302        C303   1.411       .  A
C302       Br307   1.936   1_455  S
C303        C304   1.410       .  A
C304       Br305   1.935       .  S
C309        C310   1.428       .  A
C309        C314   1.408       .  A
C309       Br316   1.933       .  S
C310        C311   1.425       .  A
C311        C312   1.406       .  A
C311       Br318   1.927   1_455  S
C312        C313   1.402       .  A
C312       Br317   1.933       .  S
C313        C314   1.404       .  A
C314       Br315   1.936       .  S
C319        C320   1.416       .  A
C319        C324   1.407       .  A
C319       Br326   1.935   1_545  S
C320        C321   1.410       .  A
C321        C322   1.408       .  A
C321       Br328   1.925       .  S
C322        C323   1.409       .  A
C322       Br327   1.931       .  S
C323        C324   1.408       .  A
C324       Br325   1.931       .  S
C329        C330   1.419       .  A
C329        C334   1.408       .  A
C329       Br336   1.936       .  S
C330        C331   1.416       .  A
C331        C332   1.411       .  A
C331       Br338   1.929       .  S
C332        C333   1.416       .  A
C332       Br337   1.934       .  S
C333        C334   1.415       .  A
C334       Br335   1.935       .  S
C339        C340   1.414       .  A
C339        C344   1.404       .  A
C339       Br346   1.930       .  S
C340        C341   1.415       .  A
C341        C342   1.408       .  A
C341       Br348   1.921       .  S
C342        C343   1.406       .  A
C342       Br347   1.932       .  S
C343        C344   1.406       .  A
C344       Br345   1.931       .  S
C349        C350   1.416       .  A
C349        C354   1.407       .  A
C349       Br356   1.936       .  S
C350        C351   1.413       .  A
C351        C352   1.409       .  A
C351       Br358   1.933       .  S
C352        C353   1.411       .  A
C352       Br357   1.932       .  S
C353        C354   1.412       .  A
C354       Br355   1.935       .  S
C359        C360   1.414       .  A
C359        C364   1.407       .  A
C359       Br366   1.932       .  S
C360        C361   1.412       .  A
C361        C362   1.408   1_565  A
C361       Br368   1.931   1_565  S
C362        C363   1.409   1_545  A
C362       Br367   1.931       .  S
C363        C364   1.408       .  A
C364       Br365   1.932       .  S
C369        C370   1.412       .  A
C369        C374   1.407       .  A
C369       Br376   1.933   1_554  S
C370        C371   1.411       .  A
C371        C372   1.406       .  A
C371       Br378   1.934       .  S
C372        C373   1.411       .  A
C372       Br377   1.933       .  S
C373        C374   1.410       .  A
C374       Br375   1.932       .  S
C379        C380   1.410       .  A
C379        C384   1.408       .  A
C379       Br386   1.931       .  S
C380        C381   1.410       .  A
C381        C382   1.405       .  A
C381       Br388   1.932   1_554  S
C382        C383   1.409       .  A
C382       Br387   1.931       .  S
C383        C384   1.412       .  A
C384       Br385   1.931       .  S
C389        C390   1.409       .  A
C389        C394   1.406       .  A
C389       Br396   1.931       .  S
C390        C391   1.408       .  A
C391        C392   1.408       .  A
C391       Br398   1.930       .  S
C392        C393   1.412       .  A
C392       Br397   1.931       .  S
C393        C394   1.412       .  A
C394       Br395   1.933   1_565  S
C399        C400   1.409       .  A
C399        C404   1.404       .  A
C399       Br406   1.936       .  S
C400        C401   1.407       .  A
C401        C402   1.410   1_565  A
C401       Br408   1.932       .  S
C402        C403   1.416       .  A
C402       Br407   1.927       .  S
C403        C404   1.421   1_545  A
C404       Br405   1.939       .  S
C409        C410   1.400       .  A
C409        C414   1.410       .  A
C409       Br416   1.934       .  S
C410        C411   1.404       .  A
C411        C412   1.409       .  A
C411       Br418   1.937       .  S
C412        C413   1.424       .  A
C412       Br417   1.920       .  S
C413        C414   1.435       .  A
C414       Br415   1.939       .  S
C419        C420   1.408       .  A
C419        C424   1.406       .  A
C419       Br426   1.930       .  S
C420        C421   1.410       .  A
C421        C422   1.406       .  A
C421       Br428   1.931       .  S
C422        C423   1.410       .  A
C422       Br427   1.932       .  S
C423        C424   1.409       .  A
C424       Br425   1.931       .  S
C429        C430   1.408       .  A
C429        C434   1.407   1_565  A
C429       Br436   1.934       .  S
C430        C431   1.408       .  A
C431        C432   1.409       .  A
C431       Br438   1.934       .  S
C432        C433   1.415       .  A
C432       Br437   1.920       .  S
C433        C434   1.417   1_565  A
C434       Br435   1.929       .  S
C439        C440   1.417       .  A
C439        C444   1.415   1_455  A
C439       Br446   1.932       .  S
C440        C441   1.413       .  A
C441        C442   1.399       .  A
C441       Br448   1.934       .  S
C442        C443   1.410   1_455  A
C442       Br447   1.922       .  S
C443        C444   1.418       .  A
C444       Br445   1.925       .  S
C449        C450   1.411   1_655  A
C449        C454   1.409       .  A
C449       Br456   1.931       .  S
C450        C451   1.412       .  A
C451        C452   1.406       .  A
C451       Br458   1.932       .  S
C452        C453   1.409   1_455  A
C452       Br457   1.932       .  S
C453        C454   1.411       .  A
C454       Br455   1.932       .  S
C459        C460   1.415       .  A
C459        C464   1.410       .  A
C459       Br466   1.922       .  S
C460        C461   1.416       .  A
C461        C462   1.405       .  A
C461       Br468   1.924       .  S
C462        C463   1.405       .  A
C462       Br467   1.934       .  S
C463        C464   1.409       .  A
C464       Br465   1.933       .  S
C469        C470   1.410       .  A
C469        C474   1.401   1_455  A
C469       Br476   1.936       .  S
C470        C471   1.415       .  A
C471        C472   1.414       .  A
C471       Br478   1.929       .  S
C472        C473   1.421   1_455  A
C472       Br477   1.928       .  S
C473        C474   1.421       .  A
C474       Br475   1.930       .  S
C479        C480   1.409       .  A
C479        C484   1.406       .  A
C479       Br486   1.932       .  S
C480        C481   1.410       .  A
C481        C482   1.405       .  A
C481       Br488   1.933       .  S
C482        C483   1.412       .  A
C482       Br487   1.934       .  S
C483        C484   1.415       .  A
C484       Br485   1.935       .  S
C489        C490   1.423       .  A
C489        C494   1.402       .  A
C489       Br496   1.926       .  S
C490        C491   1.432       .  A
C491        C492   1.412       .  A
C491       Br498   1.932       .  S
C492        C493   1.408       .  A
C492       Br497   1.938       .  S
C493        C494   1.405       .  A
C494       Br495   1.936       .  S
C499        C500   1.413       .  A
C499        C504   1.409       .  A
C499       Br506   1.932       .  S
C500        C501   1.414       .  A
C501        C502   1.405       .  A
C501       Br508   1.935       .  S
C502        C503   1.417       .  A
C502       Br507   1.938       .  S
C503        C504   1.411       .  A
C504       Br505   1.930       .  S
