geometry optimzed in LAMMPS
_audit_creation_date              2020-11-30 
_audit_creation_method            'lammps2cif' 
_symmetry_space_group_name_H-M    'P1' 
_symmetry_Int_Tables_number       1 
_symmetry_cell_setting            triclinic 
loop_ 
_symmetry_equiv_pos_as_xyz 
  x,y,z 
_cell_length_a                    35.84352974 
_cell_length_b                    44.83567204641337 
_cell_length_c                    29.12390785323574 
_cell_angle_alpha                 89.99949637207551 
_cell_angle_beta                  89.99931012310905 
_cell_angle_gamma                 89.99049916413657 
loop_ 
_atom_site_label 
_atom_site_type_symbol 
_atom_site_fract_x 
_atom_site_fract_y 
_atom_site_fract_z 
_atom_site_charge 
C1          C  0.88819211  0.25407053  0.04099560     0.06900
C2          C  0.86867121  0.24985587  0.99999972    -0.09300
C3          C  0.88820139  0.24566417  0.45900249     0.04400
C4          C  0.92724283  0.24480805  0.45917577    -0.07800
C5          C  0.94758670  0.24990140  0.49999755     0.06900
C6          C  0.92723132  0.25497046  0.04082029    -0.07200
H7          H  0.83842220  0.24984055  0.50000034     0.12500
H8          H  0.94125073  0.24003164  0.42714933     0.10000
H9          H  0.94122913  0.25976631  0.07284558     0.09900
C10         C  0.04891710  0.25419182  0.45899810     0.06900
C11         C  0.00987532  0.25503211  0.45917233    -0.09300
C12         C  0.98953357  0.24993326  0.99999530     0.04400
C13         C  0.00989115  0.24487033  0.04081728    -0.07800
C14         C  0.04892995  0.24578616  0.04099167     0.06900
C15         C  0.06844910  0.25000816  0.49999487    -0.07200
H16         H  0.99586483  0.25980506  0.42714644     0.12500
H17         H  0.99589571  0.24007143  0.07284404     0.10000
H18         H  0.09869902  0.25003824  0.49999496     0.09900
O19         O  0.35060695  0.00710806  0.20092858    -0.54100
C20         C  0.33319751  0.49529530  0.33664937     0.78600
O21         O  0.23982796  0.03343393  0.24932188    -0.55200
C22         C  0.33319807  0.00477371  0.16335830     0.78500
C23         C  0.25822985  0.44280826  0.24602453     0.80900
Cd24       Cd  0.29517216  0.50004196  0.25000491     1.37500
O25         O  0.35060209  0.49293427  0.29907881    -0.54100
O26         O  0.29323502  0.44526235  0.24290091    -0.52900
C27         C  0.25827459  0.05730256  0.25398770     0.80900
O28         O  0.23980203  0.46669053  0.25069638    -0.55200
O29         O  0.29843703  0.49973140  0.33446907    -0.53700
O30         O  0.29843347  0.00036716  0.16553967    -0.53700
O31         O  0.29327816  0.05482253  0.25710538    -0.52800
O32         O  0.08653164  0.24296531  0.20092214    -0.54100
C33         C  0.10392481  0.25478559  0.33664205     0.78600
O34         O  0.19734271  0.21670269  0.24931467    -0.55200
C35         C  0.10393769  0.24529887  0.16334926     0.78500
C36         C  0.17886448  0.30731172  0.24601288     0.80900
Cd37       Cd  0.14196384  0.25006036  0.24999662     1.37500
O38         O  0.08652195  0.25713603  0.29906922    -0.54100
O39         O  0.14386160  0.30484166  0.24288066    -0.52900
C40         C  0.17891945  0.19282282  0.25398395     0.80900
O41         O  0.19730802  0.28343802  0.25069233    -0.55200
O42         O  0.13868994  0.25037185  0.33446435    -0.53700
O43         O  0.13869979  0.24971883  0.16552731    -0.53700
O44         O  0.14391362  0.19528143  0.25710380    -0.52800
O45         O  0.58651266  0.49281913  0.20092592    -0.54100
C46         C  0.60392320  0.00465173  0.33664628     0.78600
O47         O  0.69728868  0.46649358  0.24930961    -0.55200
C48         C  0.60391836  0.49517382  0.16335583     0.78500
C49         C  0.67889347  0.05711943  0.24602249     0.80900
Cd50       Cd  0.64194707  0.99988819  0.25000154     1.37500
O51         O  0.58651734  0.00700129  0.29907539    -0.54100
O52         O  0.64388783  0.05466695  0.24290605    -0.52900
C53         C  0.67884233  0.44262549  0.25398348     0.80900
O54         O  0.69732078  0.03323609  0.25068613    -0.55200
O55         O  0.63868374  0.00021537  0.33446631    -0.53700
O56         O  0.63868119  0.49958869  0.16553724    -0.53700
O57         O  0.64383919  0.44510641  0.25710886    -0.52800
O58         O  0.85058902  0.25695799  0.20092555    -0.54100
C59         C  0.83319321  0.24512010  0.33664722     0.78600
O60         O  0.73978334  0.28322979  0.24931816    -0.55200
C61         C  0.83318510  0.25460809  0.16335411     0.78500
C62         C  0.75824808  0.19261915  0.24601695     0.80900
Cd63       Cd  0.79515664  0.24986632  0.25000310     1.37500
O64         O  0.85059774  0.24278434  0.29907300    -0.54100
O65         O  0.79325143  0.19508657  0.24288827    -0.52900
C66         C  0.75820885  0.30710836  0.25398713     0.80900
O67         O  0.73980661  0.21649418  0.25069416    -0.55200
O68         O  0.79842778  0.24953299  0.33447186    -0.53700
O69         O  0.79842373  0.25018506  0.16553463    -0.53700
O70         O  0.79321433  0.30464704  0.25710829    -0.52800
C71         C  0.38819680  0.49583123  0.45900644     0.06900
C72         C  0.36867204  0.50003979  0.50000217    -0.09300
C73         C  0.38819769  0.50423451  0.04099873     0.04400
C74         C  0.42723793  0.50510160  0.04082512    -0.07800
C75         C  0.44758593  0.50001546  0.00000269     0.06900
C76         C  0.42723621  0.49494115  0.45918053    -0.07200
H77         H  0.33842135  0.50004762  0.00000213     0.12500
H78         H  0.44124113  0.50988124  0.07285169     0.10000
H79         H  0.44123799  0.49014935  0.42715435     0.09900
C80         C  0.54891856  0.99575761  0.04099874     0.06900
C81         C  0.56844702  0.99994510  0.00000153    -0.09300
C82         C  0.54892405  0.00416064  0.45900606     0.04400
C83         C  0.50988498  0.00506520  0.45918118    -0.07800
C84         C  0.48953290  0.99999632  0.00000374     0.06900
C85         C  0.50987801  0.99490499  0.04082616    -0.07200
H86         H  0.59869694  0.99992364  0.00000026     0.12500
H87         H  0.49588601  0.00985972  0.42715553     0.10000
H88         H  0.49587224  0.99012834  0.07285303     0.09900
C89         C  0.56883882  0.00641676  0.41623703    -0.09500
C90         C  0.58497605  0.00641698  0.37993138    -0.11100
C91         C  0.58496862  0.49343971  0.12007045    -0.09500
C92         C  0.56883093  0.49346875  0.08376557    -0.11100
C93         C  0.74044956  0.16385778  0.24461978    -0.14700
C94         C  0.72653059  0.13932108  0.24402719     0.09300
C95         C  0.71063535  0.11040810  0.24402959     0.11200
C96         C  0.69670915  0.08587404  0.24462519    -0.15600
C97         C  0.69663614  0.41385743  0.25538181    -0.14700
C98         C  0.71055684  0.38931761  0.25597675     0.09300
C99         C  0.72645863  0.36040260  0.25597758     0.11200
C100        C  0.74039065  0.33586686  0.25538419    -0.15600
C101        C  0.36828396  0.00650826  0.08376711    -0.09500
C102        C  0.35214612  0.00652267  0.12007247    -0.11100
C103        C  0.35214614  0.49354484  0.37993420    -0.09500
C104        C  0.36828333  0.49355982  0.41623927    -0.11100
C105        C  0.19673973  0.16406540  0.25538254    -0.14700
C106        C  0.21066881  0.13952872  0.25597759     0.09300
C107        C  0.22656464  0.11061180  0.25597881     0.11200
C108        C  0.24048128  0.08607062  0.25538523    -0.15600
C109        C  0.24041457  0.41405342  0.24462593    -0.14700
C110        C  0.22648472  0.38952063  0.24402922     0.09300
C111        C  0.21058333  0.36060969  0.24402550     0.11200
C112        C  0.19666106  0.33607408  0.24461697    -0.15600
C113        C  0.08498880  0.24353408  0.12006450    -0.09500
C114        C  0.06884838  0.24353327  0.08376040    -0.11100
C115        C  0.08496932  0.25652066  0.37992605    -0.09500
C116        C  0.06882844  0.25648807  0.41623013    -0.11100
C117        C  0.86827523  0.25634039  0.08376357    -0.09500
C118        C  0.85213552  0.25635622  0.12006844    -0.11100
C119        C  0.85214717  0.24336807  0.37993041    -0.09500
C120        C  0.86828853  0.24338439  0.41623388    -0.11100
C121        C  0.88819298  0.25406996  0.54099578     0.06900
C122        C  0.86867209  0.24985584  0.49999979    -0.09300
C123        C  0.88820055  0.24566358  0.95900262     0.04400
C124        C  0.92724200  0.24480747  0.95917594    -0.07800
C125        C  0.94758583  0.24990139  0.99999755     0.06900
C126        C  0.92723220  0.25497000  0.54082051    -0.07200
H127        H  0.83842136  0.24984060  0.00000020     0.12500
H128        H  0.94125007  0.24003070  0.92714966     0.10000
H129        H  0.94122966  0.25976547  0.57284555     0.09900
C130        C  0.04891610  0.25419248  0.95899828     0.06900
C131        C  0.00987436  0.25503266  0.95917256    -0.09300
C132        C  0.98953450  0.24993327  0.49999528     0.04400
C133        C  0.00989208  0.24487100  0.54081752    -0.07800
C134        C  0.04893092  0.24578683  0.54099176     0.06900
C135        C  0.06844811  0.25000819  0.99999490    -0.07200
H136        H  0.99586353  0.25980604  0.92714647     0.12500
H137        H  0.99589710  0.24007262  0.57284390     0.10000
H138        H  0.09869803  0.25003831  0.99999500     0.09900
O139        O  0.35060672  0.00711345  0.70092710    -0.54100
C140        C  0.33319762  0.49530032  0.83664792     0.78600
O141        O  0.23982614  0.03343576  0.74931565    -0.55200
C142        C  0.33319794  0.00477887  0.66335685     0.78500
C143        C  0.25823337  0.44281042  0.74602430     0.80900
Cd144      Cd  0.29517206  0.50004576  0.75000316     1.37500
O145        O  0.35060235  0.49293967  0.79907736    -0.54100
O146        O  0.29323877  0.44526554  0.74290658    -0.52900
C147        C  0.25827109  0.05730472  0.75398746     0.80900
O148        O  0.23980378  0.46669235  0.75068981    -0.55200
O149        O  0.29843697  0.49973585  0.83446749    -0.53700
O150        O  0.29843346  0.00037187  0.66553810    -0.53700
O151        O  0.29327445  0.05482570  0.75711072    -0.52800
O152        O  0.08653147  0.24297050  0.70092252    -0.54100
C153        C  0.10392413  0.25478784  0.83664251     0.78600
O154        O  0.19734124  0.21670436  0.74931794    -0.55200
C155        C  0.10393821  0.24530112  0.66334967     0.78500
C156        C  0.17886736  0.30731389  0.74601280     0.80900
Cd157      Cd  0.14196374  0.25006334  0.74999717     1.37500
O158        O  0.08652199  0.25714124  0.79906964    -0.54100
O159        O  0.14386456  0.30484472  0.74287745    -0.52900
C160        C  0.17891659  0.19282488  0.75398387     0.80900
O161        O  0.19730946  0.28343977  0.75069560    -0.55200
O162        O  0.13868876  0.25037168  0.83446491    -0.53700
O163        O  0.13870080  0.24971868  0.66552782    -0.53700
O164        O  0.14391068  0.19528435  0.75710059    -0.52800
O165        O  0.58651276  0.49281399  0.70092449    -0.54100
C166        C  0.60392348  0.00464656  0.83664490     0.78600
O167        O  0.69729045  0.46649186  0.74930265    -0.55200
C168        C  0.60391823  0.49516880  0.66335431     0.78500
C169        C  0.67888980  0.05711733  0.74602163     0.80900
Cd170      Cd  0.64194696  0.99988445  0.74999970     1.37500
O171        O  0.58651738  0.00699622  0.79907415    -0.54100
O172        O  0.64388393  0.05466380  0.74291102    -0.52900
C173        C  0.67884590  0.44262336  0.75398243     0.80900
O174        O  0.69731888  0.03323438  0.75067951    -0.55200
O175        O  0.63868409  0.00021034  0.83446456    -0.53700
O176        O  0.63868095  0.49958404  0.66553540    -0.53700
O177        O  0.64384298  0.44510314  0.75711378    -0.52800
O178        O  0.85058974  0.25695306  0.70092574    -0.54100
C179        C  0.83319281  0.24511789  0.83664704     0.78600
O180        O  0.73978487  0.28322815  0.74931941    -0.55200
C181        C  0.83318560  0.25460579  0.66335405     0.78500
C182        C  0.75824515  0.19261711  0.74601521     0.80900
Cd183      Cd  0.79515655  0.24986328  0.75000233     1.37500
O184        O  0.85059707  0.24277923  0.79907308    -0.54100
O185        O  0.79324847  0.19508364  0.74288403    -0.52900
C186        C  0.75821173  0.30710631  0.75398553     0.80900
O187        O  0.73980504  0.21649259  0.75069504    -0.55200
O188        O  0.79842787  0.24953302  0.83447114    -0.53700
O189        O  0.79842376  0.25018502  0.66553406    -0.53700
O190        O  0.79321725  0.30464413  0.75710407    -0.52800
C191        C  0.38819668  0.49583324  0.95900589     0.06900
C192        C  0.36867190  0.50003980  0.00000213    -0.09300
C193        C  0.38819787  0.50423644  0.54099822     0.04400
C194        C  0.42723802  0.50510340  0.54082442    -0.07800
C195        C  0.44758583  0.50001549  0.50000261     0.06900
C196        C  0.42723611  0.49494299  0.95918010    -0.07200
H197        H  0.33842148  0.50004769  0.50000221     0.12500
H198        H  0.44124193  0.50988444  0.57285101     0.10000
H199        H  0.44123760  0.49015244  0.92715315     0.09900
C200        C  0.54891796  0.99575564  0.54099820     0.06900
C201        C  0.56844638  0.99994514  0.50000151    -0.09300
C202        C  0.54892470  0.00415869  0.95900558     0.04400
C203        C  0.50988561  0.00506345  0.95918076    -0.07800
C204        C  0.48953253  0.99999634  0.50000370     0.06900
C205        C  0.50987742  0.99490326  0.54082565    -0.07200
H206        H  0.59869629  0.99992369  0.50000026     0.12500
H207        H  0.49588684  0.00985685  0.92715421     0.10000
H208        H  0.49587129  0.99012543  0.57285195     0.09900
C209        C  0.56883949  0.00641294  0.91623615    -0.09500
C210        C  0.58497653  0.00641198  0.87993027    -0.11100
C211        C  0.58496823  0.49343488  0.62006923    -0.09500
C212        C  0.56883026  0.49346497  0.58376463    -0.11100
C213        C  0.74044520  0.16385622  0.74461817    -0.14700
C214        C  0.72652522  0.13931983  0.74402574     0.09300
C215        C  0.71062956  0.11040692  0.74402837     0.11200
C216        C  0.69670389  0.08587262  0.74462411    -0.15600
C217        C  0.69664135  0.41385604  0.75538060    -0.14700
C218        C  0.71056258  0.38931646  0.75597532     0.09300
C219        C  0.72646397  0.36040139  0.75597599     0.11200
C220        C  0.74039495  0.33586531  0.75538243    -0.15600
C221        C  0.36828417  0.00651213  0.58376615    -0.09500
C222        C  0.35214608  0.00652760  0.62007124    -0.11100
C223        C  0.35214621  0.49354974  0.87993295    -0.09500
C224        C  0.36828324  0.49356370  0.91623825    -0.11100
C225        C  0.19673548  0.16406698  0.75538247    -0.14700
C226        C  0.21066363  0.13953002  0.75597768     0.09300
C227        C  0.22655902  0.11061302  0.75597875     0.11200
C228        C  0.24047627  0.08607210  0.75538512    -0.15600
C229        C  0.24041963  0.41405491  0.74462584    -0.14700
C230        C  0.22649017  0.38952195  0.74402910     0.09300
C231        C  0.21058846  0.36061108  0.74402536     0.11200
C232        C  0.19666538  0.33607573  0.74461682    -0.15600
C233        C  0.08498957  0.24353572  0.62006479    -0.09500
C234        C  0.06884933  0.24353445  0.58376057    -0.11100
C235        C  0.08496839  0.25652230  0.87992640    -0.09500
C236        C  0.06882743  0.25648925  0.91623041    -0.11100
C237        C  0.86827613  0.25633927  0.58376384    -0.09500
C238        C  0.85213625  0.25635448  0.62006860    -0.11100
C239        C  0.85214654  0.24336654  0.87993045    -0.09500
C240        C  0.86828769  0.24338330  0.91623407    -0.11100
C241        C  0.88819215  0.75407051  0.04099562     0.06900
C242        C  0.86867122  0.74985594  0.99999973    -0.09300
C243        C  0.88820135  0.74566410  0.45900251     0.04400
C244        C  0.92724275  0.74480813  0.45917585    -0.07800
C245        C  0.94758666  0.74990146  0.49999754     0.06900
C246        C  0.92723136  0.75497051  0.04082031    -0.07200
H247        H  0.83842221  0.74984066  0.50000026     0.12500
H248        H  0.94125095  0.74003168  0.42714879     0.10000
H249        H  0.94122909  0.75976634  0.07284545     0.09900
C250        C  0.04891707  0.75419186  0.45899813     0.06900
C251        C  0.00987529  0.75503207  0.45917229    -0.09300
C252        C  0.98953358  0.74993324  0.99999527     0.04400
C253        C  0.00989115  0.74487036  0.04081726    -0.07800
C254        C  0.04892995  0.74578607  0.04099165     0.06900
C255        C  0.06844908  0.75000823  0.49999488    -0.07200
H256        H  0.99586489  0.75980492  0.42714655     0.12500
H257        H  0.99589566  0.74007153  0.07284414     0.10000
H258        H  0.09869891  0.75003836  0.49999500     0.09900
O259        O  0.35060696  0.50710815  0.20092856    -0.54100
C260        C  0.33319757  0.99529526  0.33664935     0.78600
O261        O  0.23982804  0.53343398  0.24932192    -0.55200
C262        C  0.33319806  0.50477376  0.16335830     0.78500
C263        C  0.25822985  0.94280825  0.24602453     0.80900
Cd264      Cd  0.29517211  0.00004187  0.25000492     1.37500
O265        O  0.35060216  0.99293434  0.29907879    -0.54100
O266        O  0.29323502  0.94526228  0.24290092    -0.52900
C267        C  0.25827466  0.55730262  0.25398763     0.80900
O268        O  0.23980206  0.96669055  0.25069637    -0.55200
O269        O  0.29843707  0.99973125  0.33446907    -0.53700
O270        O  0.29843343  0.50036727  0.16553968    -0.53700
O271        O  0.29327825  0.55482263  0.25710508    -0.52800
O272        O  0.08653166  0.74296541  0.20092215    -0.54100
C273        C  0.10392475  0.75478561  0.33664204     0.78600
O274        O  0.19734274  0.71670258  0.24931468    -0.55200
C275        C  0.10393769  0.74529888  0.16334925     0.78500
C276        C  0.17886454  0.80731170  0.24601288     0.80900
Cd277      Cd  0.14196372  0.75006027  0.24999662     1.37500
O278        O  0.08652194  0.75713615  0.29906920    -0.54100
O279        O  0.14386166  0.80484168  0.24288066    -0.52900
C280        C  0.17891945  0.69282272  0.25398395     0.80900
O281        O  0.19730804  0.78343799  0.25069234    -0.55200
O282        O  0.13868985  0.75037172  0.33446438    -0.53700
O283        O  0.13869983  0.74971871  0.16552726    -0.53700
O284        O  0.14391362  0.69528135  0.25710380    -0.52800
O285        O  0.58651273  0.99281917  0.20092594    -0.54100
C286        C  0.60392327  0.50465169  0.33664631     0.78600
O287        O  0.69728864  0.96649368  0.24930960    -0.55200
C288        C  0.60391838  0.99517382  0.16335582     0.78500
C289        C  0.67889339  0.55711952  0.24602248     0.80900
Cd290      Cd  0.64194703  0.49988826  0.25000154     1.37500
O291        O  0.58651739  0.50700121  0.29907542    -0.54100
O292        O  0.64388775  0.55466701  0.24290607    -0.52900
C293        C  0.67884233  0.94262557  0.25398349     0.80900
O294        O  0.69732076  0.53323620  0.25068612    -0.55200
O295        O  0.63868380  0.50021529  0.33446633    -0.53700
O296        O  0.63868122  0.99958873  0.16553718    -0.53700
O297        O  0.64383919  0.94510643  0.25710887    -0.52800
O298        O  0.85058909  0.75695805  0.20092555    -0.54100
C299        C  0.83319326  0.74512006  0.33664720     0.78600
O300        O  0.73978327  0.78322977  0.24931818    -0.55200
C301        C  0.83318518  0.75460805  0.16335411     0.78500
C302        C  0.75824808  0.69261920  0.24601696     0.80900
Cd303      Cd  0.79515669  0.74986640  0.25000310     1.37500
O304        O  0.85059780  0.74278421  0.29907299    -0.54100
O305        O  0.79325143  0.69508667  0.24288828    -0.52900
C306        C  0.75820875  0.80710837  0.25398713     0.80900
O307        O  0.73980656  0.71649421  0.25069415    -0.55200
O308        O  0.79842787  0.74953307  0.33447183    -0.53700
O309        O  0.79842380  0.75018512  0.16553463    -0.53700
O310        O  0.79321423  0.80464711  0.25710827    -0.52800
C311        C  0.38819681  0.99583113  0.45900646     0.06900
C312        C  0.36867192  0.00003971  0.50000216    -0.09300
C313        C  0.38819766  0.00423444  0.04099874     0.04400
C314        C  0.42723784  0.00510154  0.04082508    -0.07800
C315        C  0.44758591  0.00001554  0.00000268     0.06900
C316        C  0.42723625  0.99494122  0.45918046    -0.07200
H317        H  0.33842197  0.00004760  0.00000210     0.12500
H318        H  0.44124122  0.00988122  0.07285210     0.10000
H319        H  0.44123787  0.99014953  0.42715462     0.09900
C320        C  0.54891862  0.49575755  0.04099872     0.06900
C321        C  0.56844701  0.49994517  0.00000150    -0.09300
C322        C  0.54892400  0.50416075  0.45900606     0.04400
C323        C  0.50988495  0.50506526  0.45918128    -0.07800
C324        C  0.48953291  0.49999625  0.00000376     0.06900
C325        C  0.50987806  0.49490489  0.04082617    -0.07200
H326        H  0.59869687  0.49992372  0.00000016     0.12500
H327        H  0.49588574  0.50985987  0.42715524     0.10000
H328        H  0.49587231  0.49012820  0.07285305     0.09900
C329        C  0.56883872  0.50641682  0.41623698    -0.09500
C330        C  0.58497607  0.50641693  0.37993140    -0.11100
C331        C  0.58496853  0.99343978  0.12007049    -0.09500
C332        C  0.56883079  0.99346886  0.08376563    -0.11100
C333        C  0.74044958  0.66385782  0.24461978    -0.14700
C334        C  0.72653045  0.63932118  0.24402719     0.09300
C335        C  0.71063515  0.61040822  0.24402959     0.11200
C336        C  0.69670900  0.58587414  0.24462519    -0.15600
C337        C  0.69663618  0.91385751  0.25538181    -0.14700
C338        C  0.71055676  0.88931765  0.25597675     0.09300
C339        C  0.72645855  0.86040263  0.25597758     0.11200
C340        C  0.74039051  0.83586686  0.25538419    -0.15600
C341        C  0.36828402  0.50650816  0.08376715    -0.09500
C342        C  0.35214615  0.50652257  0.12007248    -0.11100
C343        C  0.35214618  0.99354486  0.37993420    -0.09500
C344        C  0.36828328  0.99355973  0.41623932    -0.11100
C345        C  0.19673963  0.66406530  0.25538254    -0.14700
C346        C  0.21066866  0.63952862  0.25597759     0.09300
C347        C  0.22656448  0.61061173  0.25597882     0.11200
C348        C  0.24048127  0.58607062  0.25538524    -0.15600
C349        C  0.24041450  0.91405341  0.24462594    -0.14700
C350        C  0.22648459  0.88952064  0.24402923     0.09300
C351        C  0.21058338  0.86060964  0.24402550     0.11200
C352        C  0.19666117  0.83607401  0.24461697    -0.15600
C353        C  0.08498875  0.74353400  0.12006453    -0.09500
C354        C  0.06884836  0.74353314  0.08376039    -0.11100
C355        C  0.08496922  0.75652057  0.37992602    -0.09500
C356        C  0.06882843  0.75648798  0.41623015    -0.11100
C357        C  0.86827530  0.75634041  0.08376358    -0.09500
C358        C  0.85213559  0.75635613  0.12006845    -0.11100
C359        C  0.85214720  0.74336808  0.37993040    -0.09500
C360        C  0.86828847  0.74338430  0.41623393    -0.11100
C361        C  0.88819289  0.75407002  0.54099577     0.06900
C362        C  0.86867201  0.74985590  0.49999977    -0.09300
C363        C  0.88820054  0.74566365  0.95900259     0.04400
C364        C  0.92724196  0.74480757  0.95917596    -0.07800
C365        C  0.94758584  0.74990145  0.99999752     0.06900
C366        C  0.92723211  0.75496995  0.54082052    -0.07200
H367        H  0.83842137  0.74984069  0.00000022     0.12500
H368        H  0.94125020  0.74003073  0.92714930     0.10000
H369        H  0.94122962  0.75976536  0.57284572     0.09900
C370        C  0.04891614  0.75419251  0.95899831     0.06900
C371        C  0.00987439  0.75503270  0.95917254    -0.09300
C372        C  0.98953447  0.74993333  0.49999530     0.04400
C373        C  0.00989208  0.74487105  0.54081749    -0.07800
C374        C  0.04893091  0.74578681  0.54099176     0.06900
C375        C  0.06844815  0.75000811  0.99999491    -0.07200
H376        H  0.99586362  0.75980606  0.92714655     0.12500
H377        H  0.99589697  0.74007267  0.57284411     0.10000
H378        H  0.09869797  0.75003816  0.99999504     0.09900
O379        O  0.35060681  0.50711332  0.70092707    -0.54100
C380        C  0.33319763  0.99530042  0.83664791     0.78600
O381        O  0.23982621  0.53343579  0.74931565    -0.55200
C382        C  0.33319797  0.50477878  0.66335685     0.78500
C383        C  0.25823343  0.94281041  0.74602431     0.80900
Cd384      Cd  0.29517201  0.00004569  0.75000316     1.37500
O385        O  0.35060241  0.99293975  0.79907737    -0.54100
O386        O  0.29323884  0.94526546  0.74290659    -0.52900
C387        C  0.25827111  0.55730478  0.75398747     0.80900
O388        O  0.23980387  0.96669236  0.75068981    -0.55200
O389        O  0.29843699  0.99973594  0.83446743    -0.53700
O390        O  0.29843347  0.50037195  0.66553814    -0.53700
O391        O  0.29327448  0.55482579  0.75711072    -0.52800
O392        O  0.08653150  0.74297037  0.70092253    -0.54100
C393        C  0.10392420  0.75478771  0.83664251     0.78600
O394        O  0.19734124  0.71670441  0.74931795    -0.55200
C395        C  0.10393823  0.74530099  0.66334967     0.78500
C396        C  0.17886729  0.80731389  0.74601280     0.80900
Cd397      Cd  0.14196378  0.75006324  0.74999717     1.37500
O398        O  0.08652206  0.75714111  0.79906964    -0.54100
O399        O  0.14386450  0.80484468  0.74287743    -0.52900
C400        C  0.17891662  0.69282491  0.75398386     0.80900
O401        O  0.19730938  0.78343977  0.75069562    -0.55200
O402        O  0.13868884  0.75037155  0.83446491    -0.53700
O403        O  0.13870082  0.74971854  0.66552781    -0.53700
O404        O  0.14391070  0.69528429  0.75710059    -0.52800
O405        O  0.58651275  0.99281406  0.70092454    -0.54100
C406        C  0.60392346  0.50464662  0.83664491     0.78600
O407        O  0.69729036  0.96649191  0.74930264    -0.55200
C408        C  0.60391817  0.99516875  0.66335432     0.78500
C409        C  0.67888978  0.55711734  0.74602164     0.80900
Cd410      Cd  0.64194693  0.49988436  0.74999970     1.37500
O411        O  0.58651736  0.50699612  0.79907415    -0.54100
O412        O  0.64388393  0.55466372  0.74291102    -0.52900
C413        C  0.67884586  0.94262340  0.75398243     0.80900
O414        O  0.69731892  0.53323442  0.75067952    -0.55200
O415        O  0.63868406  0.50021043  0.83446458    -0.53700
O416        O  0.63868091  0.99958392  0.66553535    -0.53700
O417        O  0.64384294  0.94510319  0.75711380    -0.52800
O418        O  0.85058973  0.75695317  0.70092569    -0.54100
C419        C  0.83319268  0.74511789  0.83664706     0.78600
O420        O  0.73978474  0.78322815  0.74931940    -0.55200
C421        C  0.83318552  0.75460584  0.66335405     0.78500
C422        C  0.75824517  0.69261706  0.74601521     0.80900
Cd423      Cd  0.79515658  0.74986333  0.75000232     1.37500
O424        O  0.85059703  0.74277930  0.79907315    -0.54100
O425        O  0.79324849  0.69508363  0.74288405    -0.52900
C426        C  0.75821169  0.80710626  0.75398554     0.80900
O427        O  0.73980500  0.71649251  0.75069502    -0.55200
O428        O  0.79842775  0.74953306  0.83447110    -0.53700
O429        O  0.79842370  0.75018494  0.66553413    -0.53700
O430        O  0.79321721  0.80464403  0.75710406    -0.52800
C431        C  0.38819667  0.99583318  0.95900589     0.06900
C432        C  0.36867178  0.00003971  0.00000212    -0.09300
C433        C  0.38819786  0.00423647  0.54099820     0.04400
C434        C  0.42723799  0.00510339  0.54082440    -0.07800
C435        C  0.44758585  0.00001558  0.50000260     0.06900
C436        C  0.42723611  0.99494304  0.95918004    -0.07200
H437        H  0.33842211  0.00004755  0.50000221     0.12500
H438        H  0.44124199  0.00988439  0.57285124     0.10000
H439        H  0.44123756  0.99015256  0.92715327     0.09900
C440        C  0.54891794  0.49575562  0.54099819     0.06900
C441        C  0.56844639  0.49994522  0.50000151    -0.09300
C442        C  0.54892464  0.50415877  0.95900557     0.04400
C443        C  0.50988556  0.50506351  0.95918080    -0.07800
C444        C  0.48953250  0.49999627  0.50000369     0.06900
C445        C  0.50987738  0.49490315  0.54082567    -0.07200
H446        H  0.59869610  0.49992380  0.50000023     0.12500
H447        H  0.49588673  0.50985694  0.92715423     0.10000
H448        H  0.49587140  0.49012532  0.57285160     0.09900
C449        C  0.56883938  0.50641290  0.91623610    -0.09500
C450        C  0.58497650  0.50641204  0.87993028    -0.11100
C451        C  0.58496813  0.99343488  0.62006927    -0.09500
C452        C  0.56883026  0.99346492  0.58376461    -0.11100
C453        C  0.74044528  0.66385616  0.74461817    -0.14700
C454        C  0.72652523  0.63931981  0.74402573     0.09300
C455        C  0.71062948  0.61040694  0.74402837     0.11200
C456        C  0.69670380  0.58587266  0.74462411    -0.15600
C457        C  0.69664131  0.91385601  0.75538059    -0.14700
C458        C  0.71056240  0.88931636  0.75597532     0.09300
C459        C  0.72646380  0.86040127  0.75597599     0.11200
C460        C  0.74039495  0.83586526  0.75538245    -0.15600
C461        C  0.36828420  0.50651216  0.58376617    -0.09500
C462        C  0.35214604  0.50652751  0.62007119    -0.11100
C463        C  0.35214612  0.99354984  0.87993299    -0.09500
C464        C  0.36828314  0.99356376  0.91623828    -0.11100
C465        C  0.19673556  0.66406707  0.75538247    -0.14700
C466        C  0.21066372  0.63953012  0.75597768     0.09300
C467        C  0.22655905  0.61061309  0.75597875     0.11200
C468        C  0.24047621  0.58607214  0.75538513    -0.15600
C469        C  0.24041963  0.91405492  0.74462584    -0.14700
C470        C  0.22649021  0.88952195  0.74402910     0.09300
C471        C  0.21058856  0.86061104  0.74402536     0.11200
C472        C  0.19666539  0.83607572  0.74461681    -0.15600
C473        C  0.08498959  0.74353564  0.62006477    -0.09500
C474        C  0.06884934  0.74353447  0.58376055    -0.11100
C475        C  0.08496846  0.75652217  0.87992640    -0.09500
C476        C  0.06882751  0.75648916  0.91623042    -0.11100
C477        C  0.86827597  0.75633937  0.58376380    -0.09500
C478        C  0.85213609  0.75635458  0.62006857    -0.11100
C479        C  0.85214638  0.74336654  0.87993050    -0.09500
C480        C  0.86828766  0.74338326  0.91623404    -0.11100
loop_ 
_geom_bond_atom_site_label_1 
_geom_bond_atom_site_label_2 
_geom_bond_distance 
_geom_bond_site_symmetry_2 
_ccdc_geom_bond_type 
C1            C2   1.397   1_554  A
C1            C6   1.400       .  A
C1          C117   1.439       .  S
C2          C123   1.397       .  A
C2          H127   1.084   1_556  S
C3            C4   1.400       .  A
C3          C122   1.397       .  A
C3          C120   1.439       .  S
C4            C5   1.413       .  A
C4            H8   1.081       .  S
C5          C126   1.413       .  A
C5          C132   1.504       .  S
C6          C125   1.413   1_554  A
C6            H9   1.081       .  S
H7          C122   1.084       .  S
C10          C11   1.400       .  A
C10          C15   1.397       .  A
C10         C116   1.439       .  S
C11         C132   1.413   1_455  A
C11          H16   1.081   1_455  S
C12          C13   1.413   1_656  A
C12         C131   1.413   1_655  A
C12         C125   1.504       .  S
C13          C14   1.400       .  A
C13          H17   1.081   1_455  S
C14         C135   1.397   1_554  A
C14         C114   1.439       .  S
C15         C134   1.397       .  A
C15          H18   1.084       .  S
O19          C22   1.264       .  A
O19        Cd264   2.468       .  S
C20         C103   1.434       .  S
C20          O29   1.263       .  A
C20          O25   1.264       .  A
O21          C27   1.265       .  A
O21        Cd264   2.485       .  S
C22         C102   1.434       .  S
C22          O30   1.263       .  A
C23         C109   1.439       .  S
C23          O28   1.265       .  A
C23          O26   1.263       .  A
Cd24         O29   2.463       .  S
Cd24         O25   2.468       .  S
Cd24         O28   2.485       .  S
Cd24         O26   2.466       .  S
Cd24        O259   2.468       .  S
Cd24        O261   2.485       .  S
Cd24        O271   2.466       .  S
Cd24        O270   2.463       .  S
C27         C108   1.439       .  S
C27          O31   1.263       .  A
O30        Cd264   2.463       .  S
O31        Cd264   2.466       .  S
O32          C35   1.264       .  A
O32         Cd37   2.468       .  S
C33         C115   1.434       .  S
C33          O42   1.263       .  A
C33          O38   1.264       .  A
O34          C40   1.265       .  A
O34         Cd37   2.485       .  S
C35         C113   1.434       .  S
C35          O43   1.263       .  A
C36         C112   1.439       .  S
C36          O41   1.265       .  A
C36          O39   1.263       .  A
Cd37         O44   2.466       .  S
Cd37         O43   2.463       .  S
Cd37         O42   2.463       .  S
Cd37         O38   2.468       .  S
Cd37         O41   2.485       .  S
Cd37         O39   2.466       .  S
C40         C105   1.439       .  S
C40          O44   1.263       .  A
O45          C48   1.264       .  A
O45        Cd290   2.468       .  S
C46          C90   1.434       .  S
C46          O55   1.263       .  A
C46          O51   1.264       .  A
O47          C53   1.265       .  A
O47        Cd290   2.485       .  S
C48          C91   1.434       .  S
C48          O56   1.263       .  A
C49          C96   1.439       .  S
C49          O54   1.265       .  A
C49          O52   1.263       .  A
Cd50         O55   2.463   1_565  S
Cd50         O51   2.468   1_565  S
Cd50         O54   2.485   1_565  S
Cd50         O52   2.466   1_565  S
Cd50        O285   2.468       .  S
Cd50        O287   2.485       .  S
Cd50        O297   2.466       .  S
Cd50        O296   2.463       .  S
C53          C97   1.439       .  S
C53          O57   1.263       .  A
O56        Cd290   2.463       .  S
O57        Cd290   2.466       .  S
O58          C61   1.264       .  A
O58         Cd63   2.468       .  S
C59         C119   1.434       .  S
C59          O68   1.263       .  A
C59          O64   1.264       .  A
O60          C66   1.265       .  A
O60         Cd63   2.485       .  S
C61         C118   1.434       .  S
C61          O69   1.263       .  A
C62          C93   1.439       .  S
C62          O67   1.265       .  A
C62          O65   1.263       .  A
Cd63         O70   2.466       .  S
Cd63         O69   2.463       .  S
Cd63         O68   2.463       .  S
Cd63         O64   2.468       .  S
Cd63         O67   2.485       .  S
Cd63         O65   2.466       .  S
C66         C100   1.439       .  S
C66          O70   1.263       .  A
C71          C72   1.397       .  A
C71          C76   1.400       .  A
C71         C104   1.439       .  S
C72         C193   1.397       .  A
C72         H197   1.084       .  S
C73          C74   1.400       .  A
C73         C192   1.397       .  A
C73         C341   1.439       .  S
C74          C75   1.413       .  A
C74          H78   1.081       .  S
C75         C196   1.413   1_554  A
C75         C324   1.504       .  S
C76         C195   1.413       .  A
C76          H79   1.081       .  S
H77         C192   1.084       .  S
C80          C81   1.397       .  A
C80          C85   1.400       .  A
C80         C332   1.439       .  S
C81         C202   1.397   1_564  A
C81          H86   1.084       .  S
C82          C83   1.400       .  A
C82         C201   1.397   1_545  A
C82          C89   1.439       .  S
C83         C204   1.413   1_545  A
C83          H87   1.081       .  S
C84          C85   1.413       .  A
C84         C203   1.413   1_564  A
C84         C315   1.504   1_565  S
C85          H88   1.081       .  S
C89          C90   1.205       .  T
C91          C92   1.205       .  T
C92         C320   1.439       .  S
C93          C94   1.208       .  T
C94          C95   1.416       .  S
C95          C96   1.208       .  T
C97          C98   1.208       .  T
C98          C99   1.416       .  S
C99         C100   1.208       .  T
C101        C313   1.439       .  S
C101        C102   1.205       .  T
C103        C104   1.205       .  T
C105        C106   1.208       .  T
C106        C107   1.416       .  S
C107        C108   1.208       .  T
C109        C110   1.208       .  T
C110        C111   1.416       .  S
C111        C112   1.208       .  T
C113        C114   1.205       .  T
C115        C116   1.205       .  T
C117        C118   1.205       .  T
C119        C120   1.205       .  T
C121        C122   1.397       .  A
C121        C126   1.400       .  A
C121        C237   1.439       .  S
C123        C124   1.400       .  A
C123        C240   1.439       .  S
C124        C125   1.413       .  A
C124        H128   1.081       .  S
C126        H129   1.081       .  S
C130        C131   1.400       .  A
C130        C135   1.397       .  A
C130        C236   1.439       .  S
C131        H136   1.081   1_455  S
C132        C133   1.413   1_655  A
C133        C134   1.400       .  A
C133        H137   1.081   1_455  S
C134        C234   1.439       .  S
C135        H138   1.084       .  S
O139        C142   1.264       .  A
O139       Cd384   2.468       .  S
C140        C223   1.434       .  S
C140        O149   1.263       .  A
C140        O145   1.264       .  A
O141        C147   1.265       .  A
O141       Cd384   2.485       .  S
C142        C222   1.434       .  S
C142        O150   1.263       .  A
C143        C229   1.439       .  S
C143        O148   1.265       .  A
C143        O146   1.263       .  A
Cd144       O379   2.468       .  S
Cd144       O381   2.485       .  S
Cd144       O391   2.466       .  S
Cd144       O390   2.463       .  S
Cd144       O149   2.463       .  S
Cd144       O145   2.468       .  S
Cd144       O148   2.485       .  S
Cd144       O146   2.466       .  S
C147        C228   1.439       .  S
C147        O151   1.263       .  A
O150       Cd384   2.463       .  S
O151       Cd384   2.466       .  S
O152        C155   1.264       .  A
O152       Cd157   2.468       .  S
C153        C235   1.434       .  S
C153        O162   1.263       .  A
C153        O158   1.264       .  A
O154        C160   1.265       .  A
O154       Cd157   2.485       .  S
C155        C233   1.434       .  S
C155        O163   1.263       .  A
C156        C232   1.439       .  S
C156        O161   1.265       .  A
C156        O159   1.263       .  A
Cd157       O164   2.466       .  S
Cd157       O163   2.463       .  S
Cd157       O162   2.463       .  S
Cd157       O158   2.468       .  S
Cd157       O161   2.485       .  S
Cd157       O159   2.466       .  S
C160        C225   1.439       .  S
C160        O164   1.263       .  A
O165        C168   1.264       .  A
O165       Cd410   2.468       .  S
C166        C210   1.434       .  S
C166        O175   1.263       .  A
C166        O171   1.264       .  A
O167        C173   1.265       .  A
O167       Cd410   2.485       .  S
C168        C211   1.434       .  S
C168        O176   1.263       .  A
C169        C216   1.439       .  S
C169        O174   1.265       .  A
C169        O172   1.263       .  A
Cd170       O405   2.468       .  S
Cd170       O407   2.485       .  S
Cd170       O417   2.466       .  S
Cd170       O416   2.463       .  S
Cd170       O175   2.463   1_565  S
Cd170       O171   2.468   1_565  S
Cd170       O174   2.485   1_565  S
Cd170       O172   2.466   1_565  S
C173        C217   1.439       .  S
C173        O177   1.263       .  A
O176       Cd410   2.463       .  S
O177       Cd410   2.466       .  S
O178        C181   1.264       .  A
O178       Cd183   2.468       .  S
C179        C239   1.434       .  S
C179        O188   1.263       .  A
C179        O184   1.264       .  A
O180        C186   1.265       .  A
O180       Cd183   2.485       .  S
C181        C238   1.434       .  S
C181        O189   1.263       .  A
C182        C213   1.439       .  S
C182        O187   1.265       .  A
C182        O185   1.263       .  A
Cd183       O190   2.466       .  S
Cd183       O189   2.463       .  S
Cd183       O188   2.463       .  S
Cd183       O184   2.468       .  S
Cd183       O187   2.485       .  S
Cd183       O185   2.466       .  S
C186        C220   1.439       .  S
C186        O190   1.263       .  A
C191        C192   1.397   1_556  A
C191        C196   1.400       .  A
C191        C224   1.439       .  S
C193        C194   1.400       .  A
C193        C461   1.439       .  S
C194        C195   1.413       .  A
C194        H198   1.081       .  S
C195        C444   1.504       .  S
C196        H199   1.081       .  S
C200        C201   1.397       .  A
C200        C205   1.400       .  A
C200        C452   1.439       .  S
C201        H206   1.084       .  S
C202        C203   1.400       .  A
C202        C209   1.439       .  S
C203        H207   1.081       .  S
C204        C205   1.413       .  A
C204        C435   1.504   1_565  S
C205        H208   1.081       .  S
C209        C210   1.205       .  T
C211        C212   1.205       .  T
C212        C440   1.439       .  S
C213        C214   1.208       .  T
C214        C215   1.416       .  S
C215        C216   1.208       .  T
C217        C218   1.208       .  T
C218        C219   1.416       .  S
C219        C220   1.208       .  T
C221        C433   1.439       .  S
C221        C222   1.205       .  T
C223        C224   1.205       .  T
C225        C226   1.208       .  T
C226        C227   1.416       .  S
C227        C228   1.208       .  T
C229        C230   1.208       .  T
C230        C231   1.416       .  S
C231        C232   1.208       .  T
C233        C234   1.205       .  T
C235        C236   1.205       .  T
C237        C238   1.205       .  T
C239        C240   1.205       .  T
C241        C242   1.397   1_554  A
C241        C246   1.400       .  A
C241        C357   1.439       .  S
C242        C363   1.397       .  A
C242        H367   1.084   1_556  S
C243        C362   1.397       .  A
C243        C244   1.400       .  A
C243        C360   1.439       .  S
C244        C245   1.413       .  A
C244        H248   1.081       .  S
C245        C366   1.413       .  A
C245        C372   1.504       .  S
C246        C365   1.413   1_554  A
C246        H249   1.081       .  S
H247        C362   1.084       .  S
C250        C251   1.400       .  A
C250        C255   1.397       .  A
C250        C356   1.439       .  S
C251        C372   1.413   1_455  A
C251        H256   1.081   1_455  S
C252        C371   1.413   1_655  A
C252        C253   1.413   1_656  A
C252        C365   1.504       .  S
C253        C254   1.400       .  A
C253        H257   1.081   1_455  S
C254        C375   1.397   1_554  A
C254        C354   1.439       .  S
C255        C374   1.397       .  A
C255        H258   1.084       .  S
O259        C262   1.264       .  A
C260        C343   1.434       .  S
C260        O269   1.263       .  A
C260        O265   1.264       .  A
O261        C267   1.265       .  A
C262        C342   1.434       .  S
C262        O270   1.263       .  A
C263        C349   1.439       .  S
C263        O268   1.265       .  A
C263        O266   1.263       .  A
Cd264       O269   2.463   1_545  S
Cd264       O265   2.468   1_545  S
Cd264       O268   2.485   1_545  S
Cd264       O266   2.466   1_545  S
C267        C348   1.439       .  S
C267        O271   1.263       .  A
O272        C275   1.264       .  A
O272       Cd277   2.468       .  S
C273        C355   1.434       .  S
C273        O282   1.263       .  A
C273        O278   1.264       .  A
O274        C280   1.265       .  A
O274       Cd277   2.485       .  S
C275        C353   1.434       .  S
C275        O283   1.263       .  A
C276        C352   1.439       .  S
C276        O281   1.265       .  A
C276        O279   1.263       .  A
Cd277       O284   2.466       .  S
Cd277       O283   2.463       .  S
Cd277       O282   2.463       .  S
Cd277       O278   2.468       .  S
Cd277       O281   2.485       .  S
Cd277       O279   2.466       .  S
C280        C345   1.439       .  S
C280        O284   1.263       .  A
O285        C288   1.264       .  A
C286        C330   1.434       .  S
C286        O295   1.263       .  A
C286        O291   1.264       .  A
O287        C293   1.265       .  A
C288        C331   1.434       .  S
C288        O296   1.263       .  A
C289        C336   1.439       .  S
C289        O294   1.265       .  A
C289        O292   1.263       .  A
Cd290       O295   2.463       .  S
Cd290       O291   2.468       .  S
Cd290       O294   2.485       .  S
Cd290       O292   2.466       .  S
C293        C337   1.439       .  S
C293        O297   1.263       .  A
O298        C301   1.264       .  A
O298       Cd303   2.468       .  S
C299        C359   1.434       .  S
C299        O308   1.263       .  A
C299        O304   1.264       .  A
O300        C306   1.265       .  A
O300       Cd303   2.485       .  S
C301        C358   1.434       .  S
C301        O309   1.263       .  A
C302        C333   1.439       .  S
C302        O307   1.265       .  A
C302        O305   1.263       .  A
Cd303       O310   2.466       .  S
Cd303       O309   2.463       .  S
Cd303       O308   2.463       .  S
Cd303       O304   2.468       .  S
Cd303       O307   2.485       .  S
Cd303       O305   2.466       .  S
C306        C340   1.439       .  S
C306        O310   1.263       .  A
C311        C312   1.397   1_565  A
C311        C316   1.400       .  A
C311        C344   1.439       .  S
C312        C433   1.397       .  A
C312        H437   1.084       .  S
C313        C432   1.397       .  A
C313        C314   1.400       .  A
C314        C315   1.413       .  A
C314        H318   1.081       .  S
C315        C436   1.413   1_544  A
C316        C435   1.413   1_565  A
C316        H319   1.081       .  S
H317        C432   1.084       .  S
C320        C321   1.397       .  A
C320        C325   1.400       .  A
C321        C442   1.397   1_554  A
C321        H326   1.084       .  S
C322        C441   1.397       .  A
C322        C323   1.400       .  A
C322        C329   1.439       .  S
C323        C444   1.413       .  A
C323        H327   1.081       .  S
C324        C443   1.413   1_554  A
C324        C325   1.413       .  A
C325        H328   1.081       .  S
C329        C330   1.205       .  T
C331        C332   1.205       .  T
C333        C334   1.208       .  T
C334        C335   1.416       .  S
C335        C336   1.208       .  T
C337        C338   1.208       .  T
C338        C339   1.416       .  S
C339        C340   1.208       .  T
C341        C342   1.205       .  T
C343        C344   1.205       .  T
C345        C346   1.208       .  T
C346        C347   1.416       .  S
C347        C348   1.208       .  T
C349        C350   1.208       .  T
C350        C351   1.416       .  S
C351        C352   1.208       .  T
C353        C354   1.205       .  T
C355        C356   1.205       .  T
C357        C358   1.205       .  T
C359        C360   1.205       .  T
C361        C362   1.397       .  A
C361        C366   1.400       .  A
C361        C477   1.439       .  S
C363        C364   1.400       .  A
C363        C480   1.439       .  S
C364        C365   1.413       .  A
C364        H368   1.081       .  S
C366        H369   1.081       .  S
C370        C371   1.400       .  A
C370        C375   1.397       .  A
C370        C476   1.439       .  S
C371        H376   1.081   1_455  S
C372        C373   1.413   1_655  A
C373        C374   1.400       .  A
C373        H377   1.081   1_455  S
C374        C474   1.439       .  S
C375        H378   1.084       .  S
O379        C382   1.264       .  A
C380        C463   1.434       .  S
C380        O389   1.263       .  A
C380        O385   1.264       .  A
O381        C387   1.265       .  A
C382        C462   1.434       .  S
C382        O390   1.263       .  A
C383        C469   1.439       .  S
C383        O388   1.265       .  A
C383        O386   1.263       .  A
Cd384       O389   2.463   1_545  S
Cd384       O385   2.468   1_545  S
Cd384       O388   2.485   1_545  S
Cd384       O386   2.466   1_545  S
C387        C468   1.439       .  S
C387        O391   1.263       .  A
O392        C395   1.264       .  A
O392       Cd397   2.468       .  S
C393        C475   1.434       .  S
C393        O402   1.263       .  A
C393        O398   1.264       .  A
O394        C400   1.265       .  A
O394       Cd397   2.485       .  S
C395        C473   1.434       .  S
C395        O403   1.263       .  A
C396        C472   1.439       .  S
C396        O401   1.265       .  A
C396        O399   1.263       .  A
Cd397       O404   2.466       .  S
Cd397       O403   2.463       .  S
Cd397       O402   2.463       .  S
Cd397       O398   2.468       .  S
Cd397       O401   2.485       .  S
Cd397       O399   2.466       .  S
C400        C465   1.439       .  S
C400        O404   1.263       .  A
O405        C408   1.264       .  A
C406        C450   1.434       .  S
C406        O415   1.263       .  A
C406        O411   1.264       .  A
O407        C413   1.265       .  A
C408        C451   1.434       .  S
C408        O416   1.263       .  A
C409        C456   1.439       .  S
C409        O414   1.265       .  A
C409        O412   1.263       .  A
Cd410       O415   2.463       .  S
Cd410       O411   2.468       .  S
Cd410       O414   2.485       .  S
Cd410       O412   2.466       .  S
C413        C457   1.439       .  S
C413        O417   1.263       .  A
O418        C421   1.264       .  A
O418       Cd423   2.468       .  S
C419        C479   1.434       .  S
C419        O428   1.263       .  A
C419        O424   1.264       .  A
O420        C426   1.265       .  A
O420       Cd423   2.485       .  S
C421        C478   1.434       .  S
C421        O429   1.263       .  A
C422        C453   1.439       .  S
C422        O427   1.265       .  A
C422        O425   1.263       .  A
Cd423       O430   2.466       .  S
Cd423       O429   2.463       .  S
Cd423       O428   2.463       .  S
Cd423       O424   2.468       .  S
Cd423       O427   2.485       .  S
Cd423       O425   2.466       .  S
C426        C460   1.439       .  S
C426        O430   1.263       .  A
C431        C432   1.397   1_566  A
C431        C436   1.400       .  A
C431        C464   1.439       .  S
C433        C434   1.400       .  A
C434        C435   1.413       .  A
C434        H438   1.081       .  S
C436        H439   1.081       .  S
C440        C441   1.397       .  A
C440        C445   1.400       .  A
C441        H446   1.084       .  S
C442        C443   1.400       .  A
C442        C449   1.439       .  S
C443        H447   1.081       .  S
C444        C445   1.413       .  A
C445        H448   1.081       .  S
C449        C450   1.205       .  T
C451        C452   1.205       .  T
C453        C454   1.208       .  T
C454        C455   1.416       .  S
C455        C456   1.208       .  T
C457        C458   1.208       .  T
C458        C459   1.416       .  S
C459        C460   1.208       .  T
C461        C462   1.205       .  T
C463        C464   1.205       .  T
C465        C466   1.208       .  T
C466        C467   1.416       .  S
C467        C468   1.208       .  T
C469        C470   1.208       .  T
C470        C471   1.416       .  S
C471        C472   1.208       .  T
C473        C474   1.205       .  T
C475        C476   1.205       .  T
C477        C478   1.205       .  T
C479        C480   1.205       .  T
