geometry optimzed in LAMMPS
_audit_creation_date              2020-11-30 
_audit_creation_method            'lammps2cif' 
_symmetry_space_group_name_H-M    'P1' 
_symmetry_Int_Tables_number       1 
_symmetry_cell_setting            triclinic 
loop_ 
_symmetry_equiv_pos_as_xyz 
  x,y,z 
_cell_length_a                    51.92118138 
_cell_length_b                    51.7361660144334 
_cell_length_c                    37.31243003090958 
_cell_angle_alpha                 89.83329553443805 
_cell_angle_beta                  90.14067737936573 
_cell_angle_gamma                 120.76460931110505 
loop_ 
_atom_site_label 
_atom_site_type_symbol 
_atom_site_fract_x 
_atom_site_fract_y 
_atom_site_fract_z 
_atom_site_charge 
Fe1        Fe  0.30850916  0.18438689  0.74734193     1.65800
Fe2        Fe  0.31440415  0.12156424  0.74974278     1.73200
Fe3        Fe  0.37744181  0.19148933  0.74801100     1.54400
O4          O  0.37765718  0.22212353  0.71162090    -0.80100
O5          O  0.34106788  0.12222365  0.79137774    -0.78400
O6          O  0.33062103  0.21073891  0.70382196    -0.82600
O7          O  0.33624415  0.21868660  0.78230056    -0.77500
O8          O  0.38141391  0.16851904  0.70530978    -0.79300
O9          O  0.28281368  0.11633583  0.78725953    -0.82000
C10         C  0.36100034  0.22730490  0.79822916     0.98800
C11         C  0.35814779  0.22587573  0.69566499     1.06200
O12         O  0.33340385  0.16573419  0.74839163    -1.11000
O13         O  0.28506942  0.11489638  0.70846226    -0.73400
O14         O  0.27716358  0.15316529  0.71212216    -0.76900
O15         O  0.37770991  0.21675043  0.79101341    -0.77600
C16         C  0.27124875  0.12812559  0.69891657     0.97700
O17         O  0.28350999  0.15969080  0.79060538    -0.75500
O18         O  0.34356604  0.12142486  0.71210965    -0.80700
C19         C  0.36838706  0.13976208  0.79945653     1.00300
C20         C  0.36753266  0.14090057  0.69659126     1.06200
O21         O  0.38414930  0.16503287  0.78411320    -0.76400
C22         C  0.27381170  0.13284221  0.80081225     1.04500
C23         C  0.39628679  0.40904719  0.02988298     0.04700
C24         C  0.39285455  0.38535014  0.00827312    -0.11500
C25         C  0.41456083  0.38980086  0.98278578     0.02200
C26         C  0.44116274  0.41797876  0.98088397    -0.10000
C27         C  0.44512634  0.44183925  0.00282987     0.04700
C28         C  0.42242136  0.43736058  0.02681938    -0.09400
H29         H  0.37283087  0.36335935  0.01082341     0.10300
H30         H  0.45817454  0.42174760  0.96137818     0.07800
H31         H  0.42515975  0.45588473  0.04319433     0.07700
C32         C  0.02714456  0.00078645  0.00088089     0.81800
N33         N  0.02609532  0.02650190  0.00069697    -0.76500
C34         C  0.99932834  0.02527651  0.00063889     0.84200
N35         N  0.47347312  0.99807787  0.00086574    -0.76500
C36         C  0.47294536  0.47138885  0.00094286     0.84300
N37         N  0.49986120  0.47302048  0.00121237    -0.78200
C38         C  0.47787747  0.08323196  0.97761471     0.04700
C39         C  0.49675451  0.10668951  0.00090908    -0.11500
C40         C  0.01660464  0.10388116  0.02401149     0.02200
C41         C  0.01766163  0.07726774  0.02325431    -0.10000
C42         C  0.49843110  0.05333909  0.00068147     0.04700
C43         C  0.47849173  0.05640363  0.97805748    -0.09400
H44         H  0.49597145  0.12721709  0.00103113     0.10300
H45         H  0.03314511  0.07499258  0.04064256     0.07800
H46         H  0.46379154  0.03811030  0.96039684     0.07700
C47         C  0.08561393  0.48215557  0.02453796     0.04700
C48         C  0.10945823  0.50306208  0.00316110    -0.11500
C49         C  0.10737086  0.02513667  0.97856144     0.02200
C50         C  0.07987271  0.02407828  0.97992101    -0.10000
C51         C  0.05474586  0.50159808  0.00198721     0.04700
C52         C  0.05821725  0.48131670  0.02350882    -0.09400
H53         H  0.13049632  0.50339206  0.00335583     0.10300
H54         H  0.07665217  0.03983078  0.96414625     0.07800
H55         H  0.03961663  0.46491773  0.03961343     0.07700
Fe56       Fe  0.18285070  0.30906293  0.25099479     1.65800
Fe57       Fe  0.12144259  0.31708961  0.25162310     1.73200
Fe58       Fe  0.19208562  0.37948075  0.24771834     1.54400
O59         O  0.22147078  0.38031464  0.28594013    -0.80100
O60         O  0.12107615  0.34286132  0.20982078    -0.78400
O61         O  0.21276356  0.33360983  0.29111081    -0.82600
O62         O  0.21430737  0.33336321  0.21249538    -0.77500
O63         O  0.16975922  0.38705583  0.28818527    -0.79300
O64         O  0.11352275  0.28386491  0.21490775    -0.82000
C65         C  0.22572464  0.35911905  0.19813166     0.98800
C66         C  0.22665131  0.36110440  0.30021622     1.06200
O67         O  0.16546237  0.33524792  0.25008500    -1.11000
O68         O  0.11618926  0.28910579  0.29384014    -0.73400
O69         O  0.15411247  0.28088741  0.28975573    -0.76900
O70         O  0.21818428  0.37797183  0.20704583    -0.77600
C71         C  0.12979109  0.27579874  0.30383240     0.97700
O72         O  0.15490294  0.28132534  0.21099232    -0.75500
O73         O  0.12315119  0.34778037  0.28822992    -0.80700
C74         C  0.13951091  0.36874421  0.19753666     1.00300
C75         C  0.14297888  0.37351118  0.29955233     1.06200
O76         O  0.16618363  0.38443194  0.20918115    -0.76400
C77         C  0.12822439  0.27277724  0.20149310     1.04500
C78         C  0.41426464  0.39431929  0.51927168     0.04700
C79         C  0.39088456  0.39100787  0.49705858    -0.11500
C80         C  0.39473640  0.41462647  0.47481058     0.02200
C81         C  0.42209107  0.44200991  0.47542140    -0.10000
C82         C  0.44577704  0.44557836  0.49719501     0.04700
C83         C  0.44189627  0.42157795  0.51877801    -0.09400
H84         H  0.36958675  0.36998770  0.49710630     0.10300
H85         H  0.42501944  0.46047688  0.45867018     0.07800
H86         H  0.46009928  0.42432551  0.53574210     0.07700
C87         C  0.02619136  0.00071115  0.49595490     0.81800
N88         N  0.50096332  0.47619997  0.49609898    -0.76500
C89         C  0.47407459  0.47475153  0.49800355     0.84200
N90         N  0.47324171  0.50052660  0.49986407    -0.76500
C91         C  0.99960314  0.02644923  0.49913085     0.84300
N92         N  0.02601851  0.02692282  0.49700731    -0.78200
C93         C  0.47748614  0.08387870  0.52195503     0.04700
C94         C  0.49650639  0.10741133  0.49902113    -0.11500
C95         C  0.01606804  0.10462240  0.47585962     0.02200
C96         C  0.01783075  0.07847112  0.47686059    -0.10000
C97         C  0.49903730  0.05463810  0.49974934     0.04700
C98         C  0.47860807  0.05729021  0.52194977    -0.09400
H99         H  0.49630570  0.12826957  0.49929984     0.10300
H100        H  0.03290637  0.07620769  0.45884992     0.07800
H101        H  0.46371303  0.03876167  0.53922960     0.07700
C102        C  0.08980994  0.49122151  0.46728386     0.04700
C103        C  0.06119344  0.48767973  0.47018908    -0.11500
C104        C  0.05624828  0.50556179  0.49418372     0.02200
C105        C  0.07866309  0.02038851  0.51705046    -0.10000
C106        C  0.10522186  0.01941941  0.51783242     0.04700
C107        C  0.10807776  0.99945234  0.49508146    -0.09400
H108        H  0.04315910  0.47178741  0.45304350     0.10300
H109        H  0.07627370  0.03561649  0.53472194     0.07800
H110        H  0.12851583  0.99860006  0.49552508     0.07700
C111        C  0.08176673  0.22976896  0.38204141     0.14200
C112        C  0.08596137  0.20498360  0.38139738     0.01200
C113        C  0.10612574  0.20461978  0.35668857     0.16200
C114        C  0.12129436  0.22825675  0.33243304     0.25600
C115        C  0.11618381  0.25252254  0.33203025    -0.40800
C116        C  0.09651835  0.25319462  0.35737747     0.32600
C117        C  0.06820572  0.17886311  0.40519714     0.01300
F118        F  0.11006485  0.18065070  0.35483344    -0.13100
F119        F  0.09147665  0.27648303  0.35827942    -0.13600
C120        C  0.03677298  0.16455323  0.40537669     0.16200
C121        C  0.01985742  0.14006494  0.42791005     0.25600
C122        C  0.03403315  0.12914280  0.45029952    -0.40700
C123        C  0.06536834  0.14286849  0.44946696     0.32500
C124        C  0.08237473  0.16774414  0.42731944     0.14300
F125        F  0.02238932  0.17406730  0.38336555    -0.13100
F126        F  0.07955639  0.13294159  0.47115557    -0.13600
F127        F  0.48953319  0.12683845  0.42769515    -0.15900
F128        F  0.11272239  0.18151729  0.42826541    -0.14400
F129        F  0.06317602  0.23119300  0.40645271    -0.14400
F130        F  0.13973517  0.22648999  0.30808574    -0.16000
C131        C  0.14749367  0.42575736  0.37363422     0.14200
C132        C  0.11851959  0.42151954  0.37262571     0.01200
C133        C  0.09732534  0.40056382  0.34859984     0.16200
C134        C  0.10502847  0.38429600  0.32562637     0.25600
C135        C  0.13423442  0.38890015  0.32603778    -0.40800
C136        C  0.15535374  0.40971715  0.35043533     0.32600
C137        C  0.11053180  0.43932016  0.39617429     0.01300
F138        F  0.06943275  0.39665379  0.34648586    -0.13100
F139        F  0.18357148  0.41442346  0.35202359    -0.13600
C140        C  0.12660667  0.47088873  0.39413822     0.16200
C141        C  0.11942826  0.48774443  0.41679288     0.25600
C142        C  0.09584882  0.47328257  0.44159457    -0.40700
C143        C  0.07946987  0.44172134  0.44324341     0.32500
C144        C  0.08683336  0.42486003  0.42078739     0.14300
F145        F  0.14911807  0.48536555  0.36999026    -0.13100
F146        F  0.05721337  0.42729664  0.46768707    -0.13600
F147        F  0.08337148  0.98528027  0.39636121    -0.15900
F148        F  0.07147139  0.39442634  0.42385224    -0.14400
F149        F  0.16814421  0.44535785  0.39727346    -0.14400
F150        F  0.08426917  0.36509268  0.30179981    -0.15800
C151        C  0.31803147  0.39440744  0.43989516     0.14200
C152        C  0.32312514  0.39809168  0.40273191     0.01200
C153        C  0.35224194  0.40874282  0.38962176     0.16200
C154        C  0.37569800  0.41495838  0.41320984     0.25600
C155        C  0.37037919  0.41030559  0.45026655    -0.40800
C156        C  0.34140268  0.40025877  0.46344424     0.32600
C157        C  0.29780294  0.38926371  0.37758602     0.01300
F158        F  0.35770066  0.41184780  0.35382807    -0.13100
F159        F  0.33575948  0.39617731  0.49916219    -0.13600
C160        C  0.29846374  0.40987290  0.35244363     0.16200
C161        C  0.27501371  0.40097915  0.32785107     0.25600
C162        C  0.25042911  0.37121955  0.32791127    -0.40700
C163        C  0.24967923  0.35077592  0.35351116     0.32500
C164        C  0.27313551  0.35970989  0.37800290     0.14300
F165        F  0.32191270  0.43863475  0.35161443    -0.13100
F166        F  0.22623597  0.32202782  0.35488454    -0.13600
F167        F  0.27699001  0.42123375  0.30313199    -0.15900
F168        F  0.27219072  0.33914352  0.40149221    -0.14400
F169        F  0.29033060  0.38501992  0.45334775    -0.14400
F170        F  0.40333920  0.42416618  0.39968681    -0.15800
C171        C  0.10561436  0.42508919  0.05662879     0.14200
C172        C  0.10053490  0.42458189  0.09365008     0.01200
C173        C  0.08877369  0.44162596  0.10753224     0.16200
C174        C  0.08324863  0.45983002  0.08490192     0.25600
C175        C  0.08942906  0.46126678  0.04802890    -0.40800
C176        C  0.10018394  0.44335938  0.03398327     0.32600
C177        C  0.10988239  0.40842874  0.11822834     0.01300
F178        F  0.08406235  0.44178918  0.14329392    -0.13100
F179        F  0.10549064  0.44363575  0.99832774    -0.13600
C180        C  0.14027376  0.41717803  0.12058152     0.16200
C181        C  0.14986638  0.40386794  0.14578281     0.25600
C182        C  0.12917184  0.38147198  0.16916518    -0.40700
C183        C  0.09855559  0.37234327  0.16623907     0.32500
C184        C  0.08904362  0.38570904  0.14095141     0.14300
F185        F  0.16088211  0.43949604  0.09929304    -0.13100
F186        F  0.07791912  0.35140014  0.18883964    -0.13600
F187        F  0.17947235  0.41309122  0.14738771    -0.15900
F188        F  0.05950848  0.37674682  0.13893430    -0.14400
F189        F  0.11616222  0.40811581  0.04253441    -0.14400
F190        F  0.07331037  0.47722534  0.09929869    -0.15800
C191        C  0.05183439  0.14568840  0.11073950     0.14200
C192        C  0.06810922  0.17566191  0.09885014     0.01200
C193        C  0.06861133  0.18187078  0.06213032     0.16200
C194        C  0.05252137  0.15852800  0.03766204     0.25600
C195        C  0.03549974  0.12848942  0.04954810    -0.40800
C196        C  0.03559174  0.12229504  0.08633532     0.32600
C197        C  0.08373435  0.20061387  0.12479877     0.01300
F198        F  0.08479071  0.21063737  0.05002280    -0.13100
F199        F  0.01889330  0.09371904  0.09889072    -0.13600
C200        C  0.10919282  0.20489501  0.14325329     0.16200
C201        C  0.12402749  0.22866040  0.16756814     0.25600
C202        C  0.11337210  0.24842760  0.17430311    -0.40700
C203        C  0.08768540  0.24389035  0.15567155     0.32500
C204        C  0.07319441  0.22034853  0.13104253     0.14300
F205        F  0.11983041  0.18613713  0.13748632    -0.13100
F206        F  0.07659615  0.26232518  0.16099442    -0.13600
F207        F  0.14842738  0.23180479  0.18507044    -0.15900
F208        F  0.04850574  0.21650947  0.11356845    -0.14400
F209        F  0.05084959  0.13919802  0.14617384    -0.14400
F210        F  0.05374179  0.16528069  0.00228748    -0.15800
C211        C  0.29510202  0.40606346  0.14126769     0.14200
C212        C  0.29911167  0.38369440  0.12581558     0.01200
C213        C  0.27817821  0.35333012  0.13257920     0.16200
C214        C  0.25367357  0.34532770  0.15486729     0.25600
C215        C  0.24973195  0.36765641  0.17115266    -0.40800
C216        C  0.27055951  0.39817591  0.16364250     0.32600
C217        C  0.32439710  0.39175480  0.10135202     0.01300
F218        F  0.28177969  0.33137004  0.11795969    -0.13100
F219        F  0.26775820  0.42048493  0.17866413    -0.13600
C220        C  0.35404899  0.40655047  0.11405952     0.16200
C221        C  0.37765667  0.41268425  0.09079329     0.25600
C222        C  0.37182462  0.40413296  0.05451162    -0.40700
C223        C  0.34210661  0.38994429  0.04186536     0.32500
C224        C  0.31864395  0.38370675  0.06512564     0.14300
F225        F  0.35997169  0.41413081  0.14918869    -0.13100
F226        F  0.33577196  0.38235320  0.00679397    -0.13600
F227        F  0.40599622  0.42591814  0.10398533    -0.15900
F228        F  0.29016492  0.36982317  0.05228372    -0.14400
F229        F  0.31490759  0.43555544  0.13448406    -0.14400
F230        F  0.23386408  0.31563143  0.16048225    -0.15800
C231        C  0.20765594  0.11818710  0.85861208     0.14200
C232        C  0.20289231  0.09316033  0.87861700     0.01200
C233        C  0.22181038  0.08150510  0.87365980     0.16200
C234        C  0.24527620  0.09470431  0.84895051     0.25600
C235        C  0.25022387  0.11989156  0.82871626    -0.40800
C236        C  0.23117102  0.13155430  0.83397106     0.32600
C237        C  0.17811942  0.07889785  0.90464924     0.01300
F238        F  0.21709858  0.05686825  0.89229449    -0.13100
F239        F  0.23460944  0.15532018  0.81447196    -0.13600
C240        C  0.14823072  0.06350954  0.89287353     0.16200
C241        C  0.12497972  0.04708308  0.91721107     0.25600
C242        C  0.13136371  0.04596661  0.95373121    -0.40700
C243        C  0.16124077  0.06295304  0.96566186     0.32500
C244        C  0.18442126  0.07915629  0.94125809     0.14300
F245        F  0.14171014  0.06312835  0.85753838    -0.13100
F246        F  0.16802214  0.06354832  0.00092862    -0.13600
F247        F  0.09690575  0.52339127  0.90604957    -0.15900
F248        F  0.21315849  0.09476559  0.95321390    -0.14400
F249        F  0.18949665  0.12967629  0.86297798    -0.14400
F250        F  0.26314094  0.08282524  0.84497074    -0.15800
C251        C  0.14571309  0.05121476  0.60581727     0.14200
C252        C  0.17537506  0.07037755  0.59441411     0.01200
C253        C  0.18172328  0.07378793  0.55750994     0.16200
C254        C  0.15889702  0.05749804  0.53245455     0.25600
C255        C  0.12927823  0.03794070  0.54393017    -0.40800
C256        C  0.12285361  0.03524249  0.58081309     0.32600
C257        C  0.19986370  0.08540650  0.62111540     0.01300
F258        F  0.21020723  0.09218274  0.54583753    -0.13100
F259        F  0.09458092  0.01619714  0.59271083    -0.13600
C260        C  0.20672277  0.06806620  0.64384800     0.16200
C261        C  0.23008838  0.08192479  0.66876105     0.25600
C262        C  0.24689391  0.11352611  0.67181384    -0.40700
C263        C  0.23957022  0.13084586  0.64938416     0.32500
C264        C  0.21646881  0.11689640  0.62403696     0.14300
F265        F  0.19086174  0.03757803  0.64167226    -0.13100
F266        F  0.25500962  0.16132741  0.65161455    -0.13600
F267        F  0.23567862  0.06429141  0.69056682    -0.15900
F268        F  0.20998682  0.13411653  0.60268075    -0.14400
F269        F  0.13896219  0.04777479  0.64128818    -0.14400
F270        F  0.16569303  0.06078417  0.49699396    -0.15800
C271        C  0.37996868  0.09324625  0.87043862     0.14200
C272        C  0.41074122  0.11123685  0.87736998     0.01200
C273        C  0.42740179  0.13891906  0.85972048     0.16200
C274        C  0.41362859  0.14845754  0.83506275     0.25600
C275        C  0.38271056  0.13026675  0.82724195    -0.40800
C276        C  0.36604333  0.10251901  0.84553771     0.32600
C277        C  0.42570654  0.10136010  0.90309534     0.01300
F278        F  0.45714440  0.15685272  0.86656754    -0.13100
F279        F  0.33628312  0.08410639  0.83929772    -0.13600
C280        C  0.44449360  0.09118004  0.89070164     0.16200
C281        C  0.46048828  0.08399597  0.91501582     0.25600
C282        C  0.45832574  0.08742967  0.95210755    -0.40700
C283        C  0.43880240  0.09681237  0.96444302     0.32500
C284        C  0.42249463  0.10355694  0.94010279     0.14300
F285        F  0.44774113  0.08876400  0.85498449    -0.13100
F286        F  0.43568991  0.09961702  0.00009911    -0.13600
F287        F  0.47912036  0.07499712  0.90225016    -0.15900
F288        F  0.40427042  0.11316129  0.95256607    -0.14400
F289        F  0.36349022  0.06642790  0.88745573    -0.14400
F290        F  0.43084464  0.17546233  0.81870745    -0.15800
C291        C  0.38539721  0.09100165  0.64016576     0.14200
C292        C  0.40821788  0.11211889  0.61784422     0.01200
C293        C  0.41638082  0.14249184  0.61986168     0.16200
C294        C  0.40250821  0.15175922  0.64454640     0.25600
C295        C  0.38028851  0.13079363  0.66798262    -0.40800
C296        C  0.37149718  0.10015191  0.66492268     0.32600
C297        C  0.42398423  0.10261284  0.59298784     0.01300
F298        F  0.43850099  0.16338830  0.59863170    -0.13100
F299        F  0.35003997  0.07898221  0.68655619    -0.13600
C300        C  0.42401184  0.10767574  0.55602046     0.16200
C301        C  0.44027866  0.10027008  0.53274807     0.25600
C302        C  0.45711765  0.08791234  0.54608036    -0.40700
C303        C  0.45629687  0.08198591  0.58301648     0.32500
C304        C  0.43982091  0.08923921  0.60625316     0.14300
F305        F  0.40833864  0.11993643  0.54247568    -0.13100
F306        F  0.47275142  0.07073212  0.59692886    -0.13600
F307        F  0.43974556  0.10540801  0.49711324    -0.15900
F308        F  0.44043118  0.08446469  0.64196802    -0.14400
F309        F  0.37663326  0.06141707  0.63806189    -0.14400
F310        F  0.41099801  0.18131481  0.64549860    -0.15800
C311        C  0.40741667  0.29303485  0.63556065     0.14200
C312        C  0.38593131  0.29637189  0.61663681     0.01200
C313        C  0.35541467  0.27589004  0.62250301     0.16200
C314        C  0.34637466  0.25263004  0.64746268     0.25600
C315        C  0.36781711  0.24932881  0.66718963    -0.40800
C316        C  0.39853775  0.26970043  0.66047959     0.32600
C317        C  0.39518023  0.32168509  0.59140724     0.01300
F318        F  0.33428406  0.27896718  0.60470474    -0.13100
F319        F  0.42014801  0.26757566  0.67845672    -0.13600
C320        C  0.38996497  0.31627768  0.55451053     0.16200
C321        C  0.39704516  0.34003150  0.53086294     0.25600
C322        C  0.40920003  0.36955898  0.54383512    -0.40700
C323        C  0.41486948  0.37496256  0.58078543     0.32500
C324        C  0.40799959  0.35120418  0.60435088     0.14300
F325        F  0.37788742  0.28792236  0.54147187    -0.13100
F326        F  0.42573030  0.40301451  0.59428981    -0.13600
F327        F  0.39205816  0.33421024  0.49525627    -0.15900
F328        F  0.41274345  0.35679788  0.64002337    -0.14400
F329        F  0.43707303  0.31250377  0.62992322    -0.14400
F330        F  0.31652939  0.23365936  0.65248970    -0.15800
C331        C  0.37796597  0.29934557  0.84433452     0.14200
C332        C  0.38729544  0.29596078  0.87861136     0.01200
C333        C  0.38895275  0.27010616  0.88587238     0.16200
C334        C  0.38127803  0.24809243  0.85940290     0.25600
C335        C  0.37080723  0.25105618  0.82573097    -0.40800
C336        C  0.36931249  0.27691082  0.81844504     0.32600
C337        C  0.39422847  0.31906284  0.90669254     0.01300
F338        F  0.39690025  0.26559776  0.91895790    -0.13100
F339        F  0.36000411  0.28074436  0.78586381    -0.13600
C340        C  0.37341484  0.32805541  0.91414248     0.16200
C341        C  0.38035408  0.35123763  0.93835871     0.25600
C342        C  0.40796200  0.36548744  0.95668275    -0.40700
C343        C  0.42857476  0.35606166  0.95002941     0.32500
C344        C  0.42179697  0.33308170  0.92518903     0.14300
F345        F  0.34612234  0.31424635  0.89798413    -0.13100
F346        F  0.45508186  0.36881025  0.96789898    -0.13600
F347        F  0.36021782  0.36026169  0.94323703    -0.15900
F348        F  0.44244056  0.32500603  0.91867730    -0.14400
F349        F  0.37739770  0.32458548  0.83578995    -0.14400
F350        F  0.38287717  0.22329257  0.86714990    -0.15800
Fe351      Fe  0.30807817  0.68422389  0.74971512     1.65800
Fe352      Fe  0.31225168  0.62038323  0.74964954     1.73200
Fe353      Fe  0.37646578  0.68971288  0.75181395     1.54400
O354        O  0.37844761  0.72086066  0.71501417    -0.80100
O355        O  0.33746831  0.61882523  0.79141556    -0.78400
O356        O  0.33220835  0.71228559  0.70820359    -0.82600
O357        O  0.33465487  0.71674982  0.78641689    -0.77500
O358        O  0.38141078  0.66665258  0.70967884    -0.79300
O359        O  0.28016688  0.61478593  0.78673034    -0.82000
C360        C  0.35955583  0.72560222  0.80185274     0.98800
C361        C  0.35977626  0.72638075  0.69999732     1.06200
O362        O  0.33230271  0.66475237  0.75045286    -1.11000
O363        O  0.28469028  0.61615617  0.70730541    -0.73400
O364        O  0.27801603  0.65507514  0.71243269    -0.76900
O365        O  0.37653745  0.71544980  0.79424283    -0.77600
C366        C  0.27209448  0.63057920  0.69777332     0.97700
O367        O  0.28129013  0.65823500  0.79140325    -0.75500
O368        O  0.34176095  0.62018540  0.71292774    -0.80700
C369        C  0.36415486  0.63630000  0.80188456     1.00300
C370        C  0.36687780  0.63937030  0.69958052     1.06200
O371        O  0.38078245  0.66240499  0.78886982    -0.76400
C372        C  0.27139214  0.63121521  0.80104511     1.04500
C373        C  0.39754637  0.90971951  0.02922637     0.04700
C374        C  0.39465798  0.88601423  0.00816165    -0.11500
C375        C  0.41619858  0.89073855  0.98232491     0.02200
C376        C  0.44264669  0.91903706  0.98037984    -0.10000
C377        C  0.44649248  0.94274128  0.00253044     0.04700
C378        C  0.42357005  0.93814534  0.02624170    -0.09400
H379        H  0.37491807  0.86385516  0.01105760     0.10300
H380        H  0.45962057  0.92306042  0.96070728     0.07800
H381        H  0.42603213  0.95666965  0.04238079     0.07700
C382        C  0.02570498  0.50013552  0.00088746     0.81800
N383        N  0.02455850  0.52576993  0.00034822    -0.76500
C384        C  0.99771185  0.52437995  0.00006769     0.84200
N385        N  0.47192478  0.49713363  0.00048229    -0.76500
C386        C  0.47437632  0.97225443  0.00100714     0.84300
N387        N  0.50123737  0.97373392  0.00103264    -0.78200
C388        C  0.47504809  0.58157097  0.97833719     0.04700
C389        C  0.49464952  0.60546157  0.00067015    -0.11500
C390        C  0.01544777  0.60317012  0.02256147     0.02200
C391        C  0.01662854  0.57665585  0.02166226    -0.10000
C392        C  0.49665700  0.55231410  0.00014552     0.04700
C393        C  0.47581853  0.55483892  0.97867832    -0.09400
H394        H  0.49377514  0.62593421  0.00087526     0.10300
H395        H  0.03286839  0.57481286  0.03808431     0.07800
H396        H  0.46054162  0.53620240  0.96178093     0.07700
C397        C  0.08828125  0.98329440  0.02109008     0.04700
C398        C  0.11153933  0.00505676  0.99968365    -0.11500
C399        C  0.10614767  0.52317050  0.98104990     0.02200
C400        C  0.07886110  0.52270490  0.98108386    -0.10000
C401        C  0.05622110  0.00222641  0.00067778     0.04700
C402        C  0.06037210  0.98161278  0.02078637    -0.09400
H403        H  0.13299554  0.00629848  0.99926698     0.10300
H404        H  0.07615052  0.53817968  0.96408802     0.07800
H405        H  0.04199639  0.96454403  0.03654786     0.07700
Fe406      Fe  0.18369129  0.80747601  0.24955361     1.65800
Fe407      Fe  0.12249061  0.81594177  0.24711295     1.73200
Fe408      Fe  0.19324207  0.87812230  0.24874945     1.54400
O409        O  0.22120277  0.87777778  0.28831540    -0.80100
O410        O  0.12418552  0.84362986  0.20615999    -0.78400
O411        O  0.21369369  0.83149115  0.28996935    -0.82600
O412        O  0.21515327  0.83208245  0.21104821    -0.77500
O413        O  0.16908346  0.88399902  0.28861867    -0.79300
O414        O  0.11603954  0.78456876  0.20877477    -0.82000
C415        C  0.22730455  0.85848287  0.19823879     0.98800
C416        C  0.22681519  0.85841543  0.30116030     1.06200
O417        O  0.16649359  0.83385365  0.24848583    -1.11000
O418        O  0.11515191  0.78591586  0.28776460    -0.73400
O419        O  0.15438207  0.77949884  0.28826241    -0.76900
O420        O  0.22066007  0.87759907  0.20904930    -0.77600
C421        C  0.12896727  0.77343554  0.29994523     0.97700
O422        O  0.15612354  0.77975677  0.20919326    -0.75500
O423        O  0.12275385  0.84468472  0.28545352    -0.80700
C424        C  0.14332590  0.86977964  0.19521168     1.00300
C425        C  0.14198592  0.86969859  0.29902328     1.06200
O426        O  0.16929554  0.88480142  0.20898912    -0.76400
C427        C  0.13047186  0.77264806  0.19710063     1.04500
C428        C  0.41468223  0.89438092  0.52532513     0.04700
C429        C  0.39075912  0.88947406  0.50301173    -0.11500
C430        C  0.39353544  0.91215542  0.47968657     0.02200
C431        C  0.42059272  0.93998798  0.47922529    -0.10000
C432        C  0.44488874  0.94470107  0.50065262     0.04700
C433        C  0.44181983  0.92185654  0.52362989    -0.09400
H434        H  0.37003972  0.86791102  0.50373198     0.10300
H435        H  0.42295353  0.95780287  0.46168095     0.07800
H436        H  0.46042409  0.92555183  0.54051475     0.07700
C437        C  0.02686915  0.50339035  0.49612750     0.81800
N438        N  0.49981507  0.97406352  0.49714113    -0.76500
C439        C  0.47341521  0.97351046  0.49920437     0.84200
N440        N  0.47342686  0.99970272  0.50018784    -0.76500
C441        C  0.99901013  0.52765208  0.49992062     0.84300
N442        N  0.02572431  0.52897367  0.49797566    -0.78200
C443        C  0.47642336  0.58458278  0.52250117     0.04700
C444        C  0.49465434  0.60784873  0.49874947    -0.11500
C445        C  0.01463471  0.60524452  0.47604660     0.02200
C446        C  0.01671514  0.57932553  0.47744494    -0.10000
C447        C  0.49799712  0.55551834  0.50038603     0.04700
C448        C  0.47784539  0.55820125  0.52287157    -0.09400
H449        H  0.49363392  0.62826945  0.49824756     0.10300
H450        H  0.03200043  0.57721656  0.45962480     0.07800
H451        H  0.46346870  0.53993040  0.54077847     0.07700
C452        C  0.08458309  0.98030313  0.47204489     0.04700
C453        C  0.05787067  0.98097699  0.47215818    -0.11500
C454        C  0.05477653  0.00099889  0.49462260     0.02200
C455        C  0.07989170  0.52644479  0.51587713    -0.10000
C456        C  0.10815261  0.52910763  0.51432377     0.04700
C457        C  0.11298970  0.51171250  0.48960459    -0.09400
H458        H  0.03956020  0.96596596  0.45472147     0.10300
H459        H  0.07612164  0.54017222  0.53454977     0.07800
H460        H  0.13462409  0.51328953  0.48855701     0.07700
C461        C  0.07752309  0.72673472  0.37580272     0.14200
C462        C  0.08365537  0.70328214  0.37831273     0.01200
C463        C  0.10577711  0.70383329  0.35620665     0.16200
C464        C  0.12118318  0.72714998  0.33156896     0.25600
C465        C  0.11442302  0.75019200  0.32815952    -0.40800
C466        C  0.09255555  0.74983542  0.35077597     0.32600
C467        C  0.06618142  0.67768936  0.40297044     0.01300
F468        F  0.11161336  0.68108079  0.35739442    -0.13100
F469        F  0.08572413  0.77187654  0.34880880    -0.13600
C470        C  0.03471376  0.66116019  0.40082791     0.16200
C471        C  0.01804800  0.63733281  0.42436794     0.25600
C472        C  0.03255143  0.62939746  0.45013803    -0.40700
C473        C  0.06399211  0.64522069  0.45166220     0.32500
C474        C  0.08071801  0.66939822  0.42843141     0.14300
F475        F  0.02012143  0.66783654  0.37556449    -0.13100
F476        F  0.07841010  0.63784042  0.47637846    -0.13600
F477        F  0.48768013  0.62167456  0.42174694    -0.15900
F478        F  0.11105043  0.68520761  0.43142103    -0.14400
F479        F  0.05691037  0.72725975  0.39764712    -0.14400
F480        F  0.14172790  0.72631649  0.30991601    -0.16000
C481        C  0.14087908  0.92637240  0.36280326     0.14200
C482        C  0.11169025  0.91014222  0.37653893     0.01200
C483        C  0.09296607  0.87999712  0.36664427     0.16200
C484        C  0.10298496  0.86651015  0.34224288     0.25600
C485        C  0.13210072  0.88303266  0.32734911    -0.40800
C486        C  0.15112322  0.91300028  0.33869824     0.32600
C487        C  0.10103674  0.92524669  0.40077415     0.01300
F488        F  0.06472461  0.86383912  0.37997763    -0.13100
F489        F  0.17950890  0.92979257  0.32598590    -0.13600
C490        C  0.09466361  0.94667200  0.38702887     0.16200
C491        C  0.08822034  0.96383719  0.41021727     0.25600
C492        C  0.08833938  0.95999617  0.44751781    -0.40700
C493        C  0.09379792  0.93785140  0.46118424     0.32500
C494        C  0.09989101  0.92043236  0.43791712     0.14300
F495        F  0.09553488  0.95149965  0.35114370    -0.13100
F496        F  0.09365644  0.93344703  0.49708416    -0.13600
F497        F  0.13545676  0.51823586  0.41448790    -0.15900
F498        F  0.10585645  0.89970584  0.45163315    -0.14400
F499        F  0.15946214  0.95543534  0.37263777    -0.14400
F500        F  0.08398692  0.83734849  0.33310093    -0.15800
C501        C  0.31550792  0.88700457  0.44375480     0.14200
C502        C  0.32116653  0.89317191  0.40695913     0.01200
C503        C  0.35074236  0.90633922  0.39439867     0.16200
C504        C  0.37422426  0.91277406  0.41807713     0.25600
C505        C  0.36863597  0.90638919  0.45491796    -0.40800
C506        C  0.33902552  0.89364687  0.46755903     0.32600
C507        C  0.29616245  0.88462115  0.38133523     0.01300
F508        F  0.35672195  0.91190791  0.35888702    -0.13100
F509        F  0.33289082  0.88790181  0.50302400    -0.13600
C510        C  0.29471222  0.90655107  0.36060908     0.16200
C511        C  0.27192611  0.89820760  0.33509955     0.25600
C512        C  0.25006087  0.86761618  0.32973258    -0.40700
C513        C  0.25157341  0.84575894  0.35091146     0.32500
C514        C  0.27432776  0.85421896  0.37639798     0.14300
F515        F  0.31554007  0.93611819  0.36496230    -0.13100
F516        F  0.23115488  0.81603869  0.34690405    -0.13600
F517        F  0.27199209  0.92009462  0.31485896    -0.15900
F518        F  0.27562196  0.83254698  0.39553696    -0.14400
F519        F  0.28716648  0.87462795  0.45662050    -0.14400
F520        F  0.40228079  0.92407477  0.40469843    -0.15800
C521        C  0.11691643  0.93280189  0.05388761     0.14200
C522        C  0.10860730  0.92904064  0.09012540     0.01200
C523        C  0.09227252  0.94180613  0.10323063     0.16200
C524        C  0.08498545  0.95878128  0.08064695     0.25600
C525        C  0.09370866  0.96308822  0.04434753    -0.40800
C526        C  0.10929106  0.94939447  0.03109074     0.32600
C527        C  0.11771241  0.91261285  0.11468231     0.01300
F528        F  0.08442392  0.93881443  0.13834948    -0.13100
F529        F  0.11702558  0.95191060  0.99596955    -0.13600
C530        C  0.14800543  0.92470877  0.12361113     0.16200
C531        C  0.15648714  0.91045677  0.14898203     0.25600
C532        C  0.13473086  0.88362494  0.16591289    -0.40700
C533        C  0.10441530  0.87093299  0.15553786     0.32500
C534        C  0.09606482  0.88543281  0.13037717     0.14300
F535        F  0.16933027  0.95093339  0.10855755    -0.13100
F536        F  0.08256382  0.84488255  0.17034669    -0.13600
F537        F  0.18603057  0.92319702  0.15709321    -0.15900
F538        F  0.06670506  0.87303654  0.12147265    -0.14400
F539        F  0.13244254  0.92036778  0.04060888    -0.14400
F540        F  0.07063187  0.97215181  0.09477776    -0.15800
C541        C  0.05568819  0.64665633  0.10646838     0.14200
C542        C  0.07115739  0.67634646  0.09362583     0.01200
C543        C  0.06930317  0.68188328  0.05715305     0.16200
C544        C  0.05176622  0.65807894  0.03384810     0.25600
C545        C  0.03552324  0.62830520  0.04676693    -0.40800
C546        C  0.03784604  0.62282601  0.08330911     0.32600
C547        C  0.08730480  0.70170913  0.11876869     0.01300
F548        F  0.08435740  0.71044968  0.04422955    -0.13100
F549        F  0.02172475  0.59456646  0.09696862    -0.13600
C550        C  0.11395618  0.70731734  0.13530840     0.16200
C551        C  0.12842230  0.73073222  0.16014757     0.25600
C552        C  0.11636404  0.74898764  0.16895813    -0.40700
C553        C  0.08974421  0.74337235  0.15165674     0.32500
C554        C  0.07544603  0.71998071  0.12691554     0.14300
F555        F  0.12593640  0.69004322  0.12740882    -0.13100
F556        F  0.07720959  0.76028197  0.15875491    -0.13600
F557        F  0.15381735  0.73494005  0.17610018    -0.15900
F558        F  0.04946342  0.71463084  0.11145506    -0.14400
F559        F  0.05688942  0.64090911  0.14177320    -0.14400
F560        F  0.05073694  0.66413919  0.99861947    -0.15800
C561        C  0.29410418  0.90619662  0.13768555     0.14200
C562        C  0.29842245  0.88416717  0.12181159     0.01200
C563        C  0.27850118  0.85374005  0.12951478     0.16200
C564        C  0.25490308  0.84534996  0.15344383     0.25600
C565        C  0.25078229  0.86736223  0.17035761    -0.40800
C566        C  0.27049089  0.89793991  0.16173236     0.32600
C567        C  0.32401949  0.89267083  0.09770044     0.01300
F568        F  0.28246831  0.83211381  0.11457700    -0.13100
F569        F  0.26760376  0.92001571  0.17729157    -0.13600
C570        C  0.35347766  0.90832183  0.11100899     0.16200
C571        C  0.37755519  0.91415302  0.08879499     0.25600
C572        C  0.37246485  0.90473017  0.05280501    -0.40700
C573        C  0.34290517  0.88969601  0.03943361     0.32500
C574        C  0.31892197  0.88352280  0.06177550     0.14300
F575        F  0.35874986  0.91684461  0.14591294    -0.13100
F576        F  0.33719229  0.88107874  0.00458404    -0.13600
F577        F  0.40562008  0.92779583  0.10286555    -0.15900
F578        F  0.29061302  0.86847773  0.04838095    -0.14400
F579        F  0.31287447  0.93573905  0.12996112    -0.14400
F580        F  0.23635215  0.81559067  0.16023629    -0.15800
C581        C  0.20730130  0.61695588  0.86294134     0.14200
C582        C  0.20274998  0.59157174  0.88200764     0.01200
C583        C  0.22118111  0.57965828  0.87520999     0.16200
C584        C  0.24369271  0.59267850  0.84924192     0.25600
C585        C  0.24834468  0.61812443  0.82973252    -0.40800
C586        C  0.23002592  0.63030083  0.83721027     0.32600
C587        C  0.17781024  0.57641868  0.90774951     0.01300
F588        F  0.21679276  0.55484379  0.89313851    -0.13100
F589        F  0.23335568  0.65451830  0.81883656    -0.13600
C590        C  0.14835631  0.55849159  0.89514691     0.16200
C591        C  0.12490068  0.54189339  0.91914944     0.25600
C592        C  0.13056635  0.54308690  0.95618518    -0.40700
C593        C  0.16001330  0.56176243  0.96883615     0.32500
C594        C  0.18348448  0.57828084  0.94473567     0.14300
F595        F  0.14256265  0.55607965  0.85942153    -0.13100
F596        F  0.16603273  0.56381912  0.00449329    -0.13600
F597        F  0.09645187  0.03086430  0.90467957    -0.15900
F598        F  0.21181864  0.59581565  0.95737563    -0.14400
F599        F  0.18947432  0.62860231  0.86901967    -0.14400
F600        F  0.26090475  0.58031214  0.84329741    -0.15800
C601        C  0.14922147  0.56009436  0.60194634     0.14200
C602        C  0.17888602  0.57847865  0.59016273     0.01200
C603        C  0.18490450  0.58249830  0.55326104     0.16200
C604        C  0.16167190  0.56757296  0.52843262     0.25600
C605        C  0.13208410  0.54816906  0.54019518    -0.40800
C606        C  0.12601034  0.54500081  0.57719557     0.32600
C607        C  0.20355981  0.59281204  0.61648913     0.01300
F608        F  0.21332691  0.60081423  0.54134236    -0.13100
F609        F  0.09786208  0.52598117  0.58948713    -0.13600
C610        C  0.22575189  0.58496806  0.61784299     0.16200
C611        C  0.24833099  0.59750147  0.64386960     0.25600
C612        C  0.24909706  0.61817845  0.66901343    -0.40700
C613        C  0.22701195  0.62633363  0.66703246     0.32500
C614        C  0.20445165  0.61366745  0.64110448     0.14300
F615        F  0.22506398  0.56452419  0.59451266    -0.13100
F616        F  0.22660559  0.64591680  0.69084794    -0.13600
F617        F  0.26947251  0.58947258  0.64428443    -0.15900
F618        F  0.18331866  0.62169792  0.64007033    -0.14400
F619        F  0.14292958  0.55572822  0.63751446    -0.14400
F620        F  0.16808521  0.57191070  0.49288828    -0.15800
C621        C  0.38392691  0.58626857  0.85498126     0.14200
C622        C  0.40389507  0.60647892  0.88066298     0.01200
C623        C  0.40988256  0.63623896  0.88096628     0.16200
C624        C  0.39646045  0.64575070  0.85582648     0.25600
C625        C  0.37677719  0.62568605  0.82986533    -0.40800
C626        C  0.37050340  0.59579642  0.82975649     0.32600
C627        C  0.41975409  0.59722306  0.90602802     0.01300
F628        F  0.42961761  0.65645158  0.90486872    -0.13100
F629        F  0.35246464  0.57618232  0.80420681    -0.13600
C630        C  0.43800210  0.58653099  0.89306146     0.16200
C631        C  0.45523519  0.58050084  0.91671221     0.25600
C632        C  0.45462224  0.58517738  0.95375172    -0.40700
C633        C  0.43570784  0.59503804  0.96680572     0.32500
C634        C  0.41837180  0.60093235  0.94316402     0.14300
F635        F  0.44035897  0.58343549  0.85729183    -0.13100
F636        F  0.43414073  0.59910089  0.00249435    -0.13600
F637        F  0.47378324  0.57167365  0.90320024    -0.15900
F638        F  0.40044393  0.61059881  0.95649389    -0.14400
F639        F  0.37762814  0.55736417  0.85413956    -0.14400
F640        F  0.40275416  0.67464908  0.85684281    -0.15800
C641        C  0.38743891  0.58991198  0.64691881     0.14200
C642        C  0.40646463  0.60988187  0.62048734     0.01200
C643        C  0.41183287  0.63940182  0.61952317     0.16200
C644        C  0.39867598  0.64895615  0.64486753     0.25600
C645        C  0.37992069  0.62912876  0.67171094    -0.40800
C646        C  0.37434633  0.59943397  0.67236288     0.32600
C647        C  0.42219355  0.60064996  0.59520609     0.01300
F648        F  0.43068263  0.65931650  0.59470975    -0.13100
F649        F  0.35718146  0.57990445  0.69851495    -0.13600
C650        C  0.41902368  0.60241906  0.55800916     0.16200
C651        C  0.43619199  0.59653317  0.53427421     0.25600
C652        C  0.45651032  0.58840964  0.54737888    -0.40700
C653        C  0.45899324  0.58574520  0.58454585     0.32500
C654        C  0.44197094  0.59182335  0.60826874     0.14300
F655        F  0.39943373  0.61005453  0.54472362    -0.13100
F656        F  0.47910924  0.57886704  0.59794137    -0.13600
F657        F  0.43314684  0.59895203  0.49846264    -0.15900
F658        F  0.44584297  0.59047815  0.64408596    -0.14400
F659        F  0.38176727  0.56122412  0.64828098    -0.14400
F660        F  0.40425503  0.67758915  0.64306523    -0.15800
C661        C  0.41120152  0.79225135  0.63921091     0.14200
C662        C  0.39096118  0.79973541  0.62464045     0.01200
C663        C  0.36060412  0.78274110  0.63374199     0.16200
C664        C  0.35037736  0.75850149  0.65733734     0.25600
C665        C  0.37052844  0.75086362  0.67273755    -0.40800
C666        C  0.40115189  0.76802644  0.66309941     0.32600
C667        C  0.40090971  0.82495593  0.59935093     0.01300
F668        F  0.34080813  0.78986127  0.61983878    -0.13100
F669        F  0.42152152  0.76167817  0.67690094    -0.13600
C670        C  0.39859097  0.81945330  0.56236381     0.16200
C671        C  0.40364999  0.84224851  0.53816872     0.25600
C672        C  0.41120769  0.87086273  0.55072595    -0.40700
C673        C  0.41455486  0.87663865  0.58778930     0.32500
C674        C  0.40930663  0.85374179  0.61197851     0.14300
F675        F  0.39049808  0.79169448  0.54984141    -0.13100
F676        F  0.42149194  0.90401330  0.60057671    -0.13600
F677        F  0.40094776  0.83637240  0.50248293    -0.15900
F678        F  0.41125065  0.85926146  0.64773867    -0.14400
F679        F  0.44069601  0.80851521  0.63041497    -0.14400
F680        F  0.32068664  0.74285259  0.66526719    -0.15800
C681        C  0.37762867  0.79868324  0.84527784     0.14200
C682        C  0.38654074  0.79559621  0.87984443     0.01200
C683        C  0.38688996  0.76931283  0.88866457     0.16200
C684        C  0.37860270  0.74654394  0.86312976     0.25600
C685        C  0.36935061  0.74959364  0.82876582    -0.40800
C686        C  0.36886559  0.77578747  0.82008674     0.32600
C687        C  0.39437423  0.81948626  0.90676573     0.01300
F688        F  0.39424119  0.76528978  0.92231563    -0.13100
F689        F  0.36036011  0.77941179  0.78688715    -0.13600
C690        C  0.37334218  0.82776291  0.91568761     0.16200
C691        C  0.38085908  0.85132599  0.93943769     0.25600
C692        C  0.40933270  0.86658991  0.95586849    -0.40700
C693        C  0.43043799  0.85823688  0.94701602     0.32500
C694        C  0.42302581  0.83493113  0.92249625     0.14300
F695        F  0.34534713  0.81291595  0.90135585    -0.13100
F696        F  0.45800489  0.87225328  0.96244518    -0.13600
F697        F  0.36037187  0.85967335  0.94570022    -0.15900
F698        F  0.44397364  0.82780176  0.91356555    -0.14400
F699        F  0.37755639  0.82402921  0.83587521    -0.14400
F700        F  0.37841121  0.72104358  0.87235198    -0.15800
Fe701      Fe  0.80850807  0.18438470  0.74734721     1.65800
Fe702      Fe  0.81440372  0.12156212  0.74974527     1.73200
Fe703      Fe  0.87744121  0.19148809  0.74801324     1.54400
O704        O  0.87765552  0.22212016  0.71162126    -0.80100
O705        O  0.84106929  0.12222190  0.79137843    -0.78400
O706        O  0.83061981  0.21073907  0.70382859    -0.82600
O707        O  0.83624181  0.21868303  0.78230757    -0.77500
O708        O  0.88141332  0.16851644  0.70531322    -0.79300
O709        O  0.78281480  0.11633286  0.78726458    -0.82000
C710        C  0.86099954  0.22730349  0.79823322     0.98800
C711        C  0.85814597  0.22587379  0.69566826     1.06200
O712        O  0.83340320  0.16573240  0.74839500    -1.11000
O713        O  0.78506740  0.11489424  0.70846618    -0.73400
O714        O  0.77716370  0.15316447  0.71212566    -0.76900
O715        O  0.87771057  0.21675136  0.79101424    -0.77600
C716        C  0.77124837  0.12812488  0.69891931     0.97700
O717        O  0.78350923  0.15968687  0.79060967    -0.75500
O718        O  0.84356378  0.12142289  0.71210954    -0.80700
C719        C  0.86838754  0.13976241  0.79945978     1.00300
C720        C  0.86753089  0.14089853  0.69659216     1.06200
O721        O  0.88414895  0.16503374  0.78411754    -0.76400
C722        C  0.77381245  0.13283883  0.80081747     1.04500
C723        C  0.89628417  0.40904360  0.02988884     0.04700
C724        C  0.89285284  0.38534676  0.00827937    -0.11500
C725        C  0.91455901  0.38979833  0.98279159     0.02200
C726        C  0.94116000  0.41797684  0.98088908    -0.10000
C727        C  0.94512280  0.44183712  0.00283474     0.04700
C728        C  0.92241788  0.43735766  0.02682477    -0.09400
H729        H  0.87282969  0.36335555  0.01082983     0.10300
H730        H  0.95817172  0.42174623  0.96138285     0.07800
H731        H  0.92515556  0.45588162  0.04319952     0.07700
C732        C  0.52714207  0.00078495  0.00087952     0.81800
N733        N  0.52609366  0.02650083  0.00069620    -0.76500
C734        C  0.49932705  0.02527620  0.00063859     0.84200
N735        N  0.97347487  0.99807777  0.00086624    -0.76500
C736        C  0.97294143  0.47138691  0.00094718     0.84300
N737        N  0.99985719  0.47301842  0.00121505    -0.78200
C738        C  0.97787690  0.08323148  0.97761730     0.04700
C739        C  0.99675351  0.10668873  0.00091182    -0.11500
C740        C  0.51660482  0.10388147  0.02401000     0.02200
C741        C  0.51766129  0.07726776  0.02325329    -0.10000
C742        C  0.99843163  0.05333907  0.00068227     0.04700
C743        C  0.97849197  0.05640356  0.97805853    -0.09400
H744        H  0.99596960  0.12721587  0.00103474     0.10300
H745        H  0.53314437  0.07499230  0.04064187     0.07800
H746        H  0.96379233  0.03811074  0.96039702     0.07700
C747        C  0.58561790  0.48216014  0.02454500     0.04700
C748        C  0.60946309  0.50306657  0.00316900    -0.11500
C749        C  0.60736829  0.02513342  0.97856198     0.02200
C750        C  0.57987029  0.02407548  0.97992015    -0.10000
C751        C  0.55474998  0.50160094  0.00198916     0.04700
C752        C  0.55822098  0.48132055  0.02351303    -0.09400
H753        H  0.63050124  0.50339670  0.00336570     0.10300
H754        H  0.57665044  0.03982822  0.96414498     0.07800
H755        H  0.53961974  0.46492157  0.03961695     0.07700
Fe756      Fe  0.68285001  0.30906176  0.25099655     1.65800
Fe757      Fe  0.62144146  0.31708764  0.25162637     1.73200
Fe758      Fe  0.69208424  0.37947928  0.24772226     1.54400
O759        O  0.72147045  0.38031332  0.28594265    -0.80100
O760        O  0.62107449  0.34285979  0.20982456    -0.78400
O761        O  0.71276416  0.33360886  0.29111125    -0.82600
O762        O  0.71430455  0.33336191  0.21249591    -0.77500
O763        O  0.66975837  0.38705333  0.28819023    -0.79300
O764        O  0.61352132  0.28386303  0.21491060    -0.82000
C765        C  0.72572140  0.35911782  0.19813268     0.98800
C766        C  0.72665175  0.36110319  0.30021742     1.06200
O767        O  0.66546126  0.33524636  0.25008796    -1.11000
O768        O  0.61618912  0.28910356  0.29384301    -0.73400
O769        O  0.65411363  0.28088714  0.28975852    -0.76900
O770        O  0.71818190  0.37797090  0.20704842    -0.77600
C771        C  0.62979212  0.27579763  0.30383539     0.97700
O772        O  0.65490126  0.28132312  0.21099548    -0.75500
O773        O  0.62315001  0.34777829  0.28823332    -0.80700
C774        C  0.63950894  0.36874344  0.19754196     1.00300
C775        C  0.64297775  0.37350895  0.29955613     1.06200
O776        O  0.66618150  0.38443111  0.20918686    -0.76400
C777        C  0.62822269  0.27277492  0.20149638     1.04500
C778        C  0.91426313  0.39431722  0.51927439     0.04700
C779        C  0.89088368  0.39100594  0.49706020    -0.11500
C780        C  0.89473616  0.41462450  0.47481176     0.02200
C781        C  0.92209061  0.44200800  0.47542337    -0.10000
C782        C  0.94577589  0.44557662  0.49719830     0.04700
C783        C  0.94189470  0.42157614  0.51878171    -0.09400
H784        H  0.86958583  0.36998582  0.49710727     0.10300
H785        H  0.92501937  0.46047482  0.45867161     0.07800
H786        H  0.96009738  0.42432371  0.53574641     0.07700
C787        C  0.52619403  0.00071120  0.49595542     0.81800
N788        N  0.00096197  0.47619766  0.49610189    -0.76500
C789        C  0.97407351  0.47474970  0.49800622     0.84200
N790        N  0.97324102  0.50052511  0.49986496    -0.76500
C791        C  0.49960517  0.02644842  0.49913484     0.84300
N792        N  0.52602050  0.02692240  0.49700891    -0.78200
C793        C  0.97748191  0.08387794  0.52195093     0.04700
C794        C  0.99650256  0.10741124  0.49901806    -0.11500
C795        C  0.51607128  0.10462156  0.47586257     0.02200
C796        C  0.51783305  0.07846983  0.47686379    -0.10000
C797        C  0.99903501  0.05463884  0.49974558     0.04700
C798        C  0.97860465  0.05728988  0.52194525    -0.09400
H799        H  0.99630169  0.12826935  0.49929735     0.10300
H800        H  0.53290810  0.07620568  0.45885285     0.07800
H801        H  0.96370926  0.03876071  0.53922413     0.07700
C802        C  0.58981167  0.49122900  0.46727282     0.04700
C803        C  0.56119484  0.48768570  0.47018173    -0.11500
C804        C  0.55624981  0.50556562  0.49417966     0.02200
C805        C  0.57866886  0.02039588  0.51704285    -0.10000
C806        C  0.60522975  0.01943078  0.51782223     0.04700
C807        C  0.60808610  0.99946310  0.49507293    -0.09400
H808        H  0.54315984  0.47179350  0.45303671     0.10300
H809        H  0.57627926  0.03562453  0.53471296     0.07800
H810        H  0.62852588  0.99861397  0.49551488     0.07700
C811        C  0.58176820  0.22976558  0.38204309     0.14200
C812        C  0.58596618  0.20498226  0.38140056     0.01200
C813        C  0.60613366  0.20462141  0.35669418     0.16200
C814        C  0.62130153  0.22825892  0.33243919     0.25600
C815        C  0.61618638  0.25252175  0.33203370    -0.40800
C816        C  0.59651823  0.25319115  0.35737887     0.32600
C817        C  0.56821024  0.17886070  0.40519879     0.01300
F818        F  0.61007639  0.18065452  0.35484040    -0.13100
F819        F  0.59147212  0.27647671  0.35827841    -0.13600
C820        C  0.53677744  0.16455068  0.40537733     0.16200
C821        C  0.51986155  0.14006327  0.42791162     0.25600
C822        C  0.53403681  0.12914126  0.45030197    -0.40700
C823        C  0.56537194  0.14286601  0.44946916     0.32500
C824        C  0.58237880  0.16774149  0.42732160     0.14300
F825        F  0.52239400  0.17406394  0.38336457    -0.13100
F826        F  0.57955949  0.13293849  0.47115770    -0.13600
F827        F  0.98952897  0.12683943  0.42769356    -0.15900
F828        F  0.61272641  0.18151437  0.42826839    -0.14400
F829        F  0.56317537  0.23118755  0.40645295    -0.14400
F830        F  0.63974611  0.22649531  0.30809484    -0.16000
C831        C  0.64749220  0.42575875  0.37363246     0.14200
C832        C  0.61851902  0.42152297  0.37262003     0.01200
C833        C  0.59732524  0.40056698  0.34859407     0.16200
C834        C  0.60502794  0.38429678  0.32562425     0.25600
C835        C  0.63423300  0.38889879  0.32603960    -0.40800
C836        C  0.65535186  0.40971607  0.35043728     0.32600
C837        C  0.61053121  0.43932503  0.39616563     0.01300
F838        F  0.56943361  0.39665897  0.34647643    -0.13100
F839        F  0.68356880  0.41442050  0.35202891    -0.13600
C840        C  0.62660773  0.47089359  0.39412920     0.16200
C841        C  0.61942964  0.48775039  0.41678234     0.25600
C842        C  0.59584913  0.47328958  0.44158288    -0.40700
C843        C  0.57946783  0.44172837  0.44323085     0.32500
C844        C  0.58683096  0.42486604  0.42077651     0.14300
F845        F  0.64912058  0.48536932  0.36998272    -0.13100
F846        F  0.55720937  0.42730452  0.46767239    -0.13600
F847        F  0.58332014  0.98523612  0.39635462    -0.15900
F848        F  0.57146695  0.39443232  0.42384122    -0.14400
F849        F  0.66814222  0.44535963  0.39727187    -0.14400
F850        F  0.58426942  0.36509359  0.30179691    -0.15800
C851        C  0.81803254  0.39440676  0.43989414     0.14200
C852        C  0.82312674  0.39809023  0.40273103     0.01200
C853        C  0.85224351  0.40874053  0.38962138     0.16200
C854        C  0.87569906  0.41495552  0.41321007     0.25600
C855        C  0.87037968  0.41030365  0.45026676    -0.40800
C856        C  0.84140330  0.40025807  0.46344382     0.32600
C857        C  0.79780482  0.38926202  0.37758501     0.01300
F858        F  0.85770258  0.41184531  0.35382777    -0.13100
F859        F  0.83575981  0.39617772  0.49916176    -0.13600
C860        C  0.79846403  0.40987202  0.35244524     0.16200
C861        C  0.77501342  0.40097846  0.32785358     0.25600
C862        C  0.75043016  0.37121808  0.32791175    -0.40700
C863        C  0.74968222  0.35077351  0.35350892     0.32500
C864        C  0.77313884  0.35970747  0.37800008     0.14300
F865        F  0.82191183  0.43863453  0.35161811    -0.13100
F866        F  0.72624041  0.32202459  0.35488048    -0.13600
F867        F  0.77698775  0.42123422  0.30313753    -0.15900
F868        F  0.77219574  0.33914064  0.40148735    -0.14400
F869        F  0.79033154  0.38501989  0.45334589    -0.14400
F870        F  0.90334020  0.42416193  0.39968785    -0.15800
C871        C  0.60561240  0.42508978  0.05663618     0.14200
C872        C  0.60053332  0.42458311  0.09365751     0.01200
C873        C  0.58877407  0.44162895  0.10753963     0.16200
C874        C  0.58325100  0.45983441  0.08490929     0.25600
C875        C  0.58943164  0.46127084  0.04803638    -0.40800
C876        C  0.60018426  0.44336158  0.03399075     0.32600
C877        C  0.60988049  0.40842978  0.11823585     0.01300
F878        F  0.58406290  0.44179255  0.14330129    -0.13100
F879        F  0.60549091  0.44363771  0.99833525    -0.13600
C880        C  0.64027177  0.41717869  0.12058853     0.16200
C881        C  0.64986437  0.40386837  0.14578947     0.25600
C882        C  0.62916987  0.38147223  0.16917170    -0.40700
C883        C  0.59855379  0.37234437  0.16624665     0.32500
C884        C  0.58904183  0.38571052  0.14095944     0.14300
F885        F  0.66088006  0.43949649  0.09929975    -0.13100
F886        F  0.57791756  0.35140162  0.18884774    -0.13600
F887        F  0.67947033  0.41309162  0.14739413    -0.15900
F888        F  0.55950682  0.37674884  0.13894292    -0.14400
F889        F  0.61615780  0.40811430  0.04254175    -0.14400
F890        F  0.57331433  0.47723117  0.09930582    -0.15800
C891        C  0.55183472  0.14568637  0.11073967     0.14200
C892        C  0.56810946  0.17566023  0.09885167     0.01200
C893        C  0.56861157  0.18187021  0.06213216     0.16200
C894        C  0.55252162  0.15852818  0.03766287     0.25600
C895        C  0.53549965  0.12848924  0.04954764    -0.40800
C896        C  0.53559179  0.12229380  0.08633461     0.32600
C897        C  0.58373374  0.20061148  0.12480151     0.01300
F898        F  0.58479084  0.21063721  0.05002596    -0.13100
F899        F  0.51889327  0.09371751  0.09888907    -0.13600
C900        C  0.60919209  0.20489278  0.14325653     0.16200
C901        C  0.62402603  0.22865785  0.16757202     0.25600
C902        C  0.61337021  0.24842473  0.17430693    -0.40700
C903        C  0.58768316  0.24388676  0.15567559     0.32500
C904        C  0.57319285  0.22034525  0.13104602     0.14300
F905        F  0.61983037  0.18613553  0.13748927    -0.13100
F906        F  0.57659280  0.26232053  0.16099923    -0.13600
F907        F  0.64842572  0.23180232  0.18507493    -0.15900
F908        F  0.54850398  0.21650567  0.11357195    -0.14400
F909        F  0.55085024  0.13919487  0.14617362    -0.14400
F910        F  0.55374260  0.16528200  0.00228862    -0.15800
C911        C  0.79509829  0.40606097  0.14126876     0.14200
C912        C  0.79910672  0.38369130  0.12581615     0.01200
C913        C  0.77817197  0.35332718  0.13257838     0.16200
C914        C  0.75366736  0.34532546  0.15486594     0.25600
C915        C  0.74972742  0.36765476  0.17115256    -0.40800
C916        C  0.77055596  0.39817412  0.16364342     0.32600
C917        C  0.82439262  0.39175096  0.10135404     0.01300
F918        F  0.78177239  0.33136657  0.11795851    -0.13100
F919        F  0.76775599  0.42048355  0.17866623    -0.13600
C920        C  0.85404406  0.40654645  0.11406299     0.16200
C921        C  0.87765237  0.41267996  0.09079812     0.25600
C922        C  0.87182134  0.40412867  0.05451644    -0.40700
C923        C  0.84210371  0.38993963  0.04186886     0.32500
C924        C  0.81864042  0.38370231  0.06512777     0.14300
F925        F  0.85996569  0.41412699  0.14919224    -0.13100
F926        F  0.83577007  0.38234806  0.00679746    -0.13600
F927        F  0.90599150  0.42591371  0.10399147    -0.15900
F928        F  0.79016175  0.36981849  0.05228458    -0.14400
F929        F  0.81490511  0.43555282  0.13448617    -0.14400
F930        F  0.73385647  0.31562930  0.16047954    -0.15800
C931        C  0.70765752  0.11818342  0.85861816     0.14200
C932        C  0.70289424  0.09315682  0.87862309     0.01200
C933        C  0.72181305  0.08150233  0.87366669     0.16200
C934        C  0.74527889  0.09470179  0.84895740     0.25600
C935        C  0.75022561  0.11988840  0.82872247    -0.40800
C936        C  0.73117244  0.13155072  0.83397718     0.32600
C937        C  0.67812042  0.07889357  0.90465385     0.01300
F938        F  0.71710178  0.05686587  0.89230184    -0.13100
F939        F  0.73461023  0.15531622  0.81447779    -0.13600
C940        C  0.64823215  0.06350677  0.89287647     0.16200
C941        C  0.62497998  0.04708059  0.91721265     0.25600
C942        C  0.63136235  0.04596328  0.95373311    -0.40700
C943        C  0.66123908  0.06294815  0.96566537     0.32500
C944        C  0.68442076  0.07915071  0.94126291     0.14300
F945        F  0.64171302  0.06312679  0.85754101    -0.13100
F946        F  0.66801897  0.06354248  0.00093248    -0.13600
F947        F  0.59691207  0.52339404  0.90605491    -0.15900
F948        F  0.71315759  0.09475821  0.95322033    -0.14400
F949        F  0.68949788  0.12967222  0.86298382    -0.14400
F950        F  0.76314428  0.08282343  0.84497794    -0.15800
C951        C  0.64572034  0.05122671  0.60580701     0.14200
C952        C  0.67538248  0.07038910  0.59440460     0.01200
C953        C  0.68173117  0.07380064  0.55750057     0.16200
C954        C  0.65890508  0.05751140  0.53244450     0.25600
C955        C  0.62928608  0.03795367  0.54391955    -0.40800
C956        C  0.62286115  0.03525508  0.58080243     0.32600
C957        C  0.69987058  0.08541504  0.62110702     0.01300
F958        F  0.71021539  0.09219553  0.54582902    -0.13100
F959        F  0.59458845  0.01620931  0.59269988    -0.13600
C960        C  0.70673067  0.06807209  0.64383350     0.16200
C961        C  0.73009367  0.08192749  0.66875038     0.25600
C962        C  0.74689573  0.11352826  0.67181305    -0.40700
C963        C  0.73957129  0.13085051  0.64938865     0.32500
C964        C  0.71647247  0.11690428  0.62403776     0.14300
F965        F  0.69087276  0.03758436  0.64164847    -0.13100
F966        F  0.75500731  0.16133157  0.65162789    -0.13600
F967        F  0.73568455  0.06429125  0.69055006    -0.15900
F968        F  0.70998970  0.13412683  0.60268713    -0.14400
F969        F  0.63896911  0.04778578  0.64127782    -0.14400
F970        F  0.66570158  0.06079807  0.49698407    -0.15800
C971        C  0.87996824  0.09325433  0.87045323     0.14200
C972        C  0.91074222  0.11124205  0.87737788     0.01200
C973        C  0.92740387  0.13892075  0.85972130     0.16200
C974        C  0.91363049  0.14845791  0.83506231     0.25600
C975        C  0.88271118  0.13026922  0.82724721    -0.40800
C976        C  0.86604267  0.10252577  0.84555107     0.32600
C977        C  0.92570822  0.10136488  0.90310163     0.01300
F978        F  0.95714779  0.15685223  0.86656245    -0.13100
F979        F  0.83628091  0.08411619  0.83931802    -0.13600
C980        C  0.94450055  0.09119185  0.89070585     0.16200
C981        C  0.96049418  0.08400539  0.91501862     0.25600
C982        C  0.95832544  0.08742990  0.95211103    -0.40700
C983        C  0.93879771  0.09680631  0.96444852     0.32500
C984        C  0.92249072  0.10355300  0.94010964     0.14300
F985        F  0.94775380  0.08878460  0.85498815    -0.13100
F986        F  0.93568064  0.09960329  0.00010529    -0.13600
F987        F  0.97913134  0.07501347  0.90225148    -0.15900
F988        F  0.90426238  0.11315155  0.95257507    -0.14400
F989        F  0.86348866  0.06643954  0.88747739    -0.14400
F990        F  0.93084774  0.17545900  0.81869958    -0.15800
C991        C  0.88538728  0.09099916  0.64015459     0.14200
C992        C  0.90821300  0.11211767  0.61783951     0.01200
C993        C  0.91638171  0.14249187  0.61986425     0.16200
C994        C  0.90251015  0.15175919  0.64455057     0.25600
C995        C  0.88028571  0.13079220  0.66798129    -0.40800
C996        C  0.87148821  0.10014929  0.66491316     0.32600
C997        C  0.92397895  0.10261147  0.59298287     0.01300
F998        F  0.93850641  0.16338937  0.59863993    -0.13100
F999        F  0.85002547  0.07897796  0.68653986    -0.13600
C1000       C  0.92400957  0.10767775  0.55601607     0.16200
C1001       C  0.94027583  0.10027139  0.53274365     0.25600
C1002       C  0.95711240  0.08791076  0.54607564    -0.40700
C1003       C  0.95628871  0.08198128  0.58301129     0.32500
C1004       C  0.93981242  0.08923436  0.60624774     0.14300
F1005       F  0.90833992  0.11994251  0.54247194    -0.13100
F1006       F  0.97274075  0.07072470  0.59692377    -0.13600
F1007       F  0.93974468  0.10541163  0.49710915    -0.15900
F1008       F  0.94041940  0.08445633  0.64196220    -0.14400
F1009       F  0.87661770  0.06141350  0.63804296    -0.14400
F1010       F  0.91100584  0.18131617  0.64550983    -0.15800
C1011       C  0.90741374  0.29303134  0.63556167     0.14200
C1012       C  0.88592817  0.29636737  0.61663686     0.01200
C1013       C  0.85541158  0.27588516  0.62250315     0.16200
C1014       C  0.84637193  0.25262597  0.64746404     0.25600
C1015       C  0.86781467  0.24932601  0.66719202    -0.40800
C1016       C  0.89853520  0.26969799  0.66048198     0.32600
C1017       C  0.89517701  0.32168091  0.59140774     0.01300
F1018       F  0.83428071  0.27896131  0.60470403    -0.13100
F1019       F  0.92014574  0.26757496  0.67846092    -0.13600
C1020       C  0.88996115  0.31627424  0.55451100     0.16200
C1021       C  0.89704196  0.34002870  0.53086415     0.25600
C1022       C  0.90919789  0.36955616  0.54383711    -0.40700
C1023       C  0.91486761  0.37495886  0.58078752     0.32500
C1024       C  0.90799731  0.35119986  0.60435212     0.14300
F1025       F  0.87788266  0.28791907  0.54147155    -0.13100
F1026       F  0.92572904  0.40301055  0.59429297    -0.13600
F1027       F  0.89205454  0.33420803  0.49525741    -0.15900
F1028       F  0.91274144  0.35679279  0.64002471    -0.14400
F1029       F  0.93707002  0.31250045  0.62992408    -0.14400
F1030       F  0.81652675  0.23365486  0.65249129    -0.15800
C1031       C  0.87796228  0.29934282  0.84433981     0.14200
C1032       C  0.88729507  0.29595976  0.87861542     0.01200
C1033       C  0.88895538  0.27010658  0.88587512     0.16200
C1034       C  0.88128072  0.24809286  0.85940558     0.25600
C1035       C  0.87080652  0.25105480  0.82573512    -0.40800
C1036       C  0.86930826  0.27690770  0.81845071     0.32600
C1037       C  0.89422799  0.31906173  0.90669690     0.01300
F1038       F  0.89690550  0.26559929  0.91895963    -0.13100
F1039       F  0.85999575  0.28073921  0.78587123    -0.13600
C1040       C  0.87341408  0.32805395  0.91414717     0.16200
C1041       C  0.88035296  0.35123574  0.93836384     0.25600
C1042       C  0.90796064  0.36548536  0.95668826    -0.40700
C1043       C  0.92857365  0.35605997  0.95003489     0.32500
C1044       C  0.92179640  0.33308059  0.92519382     0.14300
F1045       F  0.84612157  0.31424499  0.89798884    -0.13100
F1046       F  0.95508046  0.36880845  0.96790512    -0.13600
F1047       F  0.86021648  0.36025947  0.94324242    -0.15900
F1048       F  0.94244048  0.32500560  0.91868185    -0.14400
F1049       F  0.87739124  0.32458138  0.83579589    -0.14400
F1050       F  0.88288299  0.22329457  0.86715143    -0.15800
Fe1051     Fe  0.80807820  0.68422741  0.74971238     1.65800
Fe1052     Fe  0.81225133  0.62038546  0.74964741     1.73200
Fe1053     Fe  0.87646663  0.68971539  0.75180762     1.54400
O1054       O  0.87844837  0.72085855  0.71500218    -0.80100
O1055       O  0.83747496  0.61882730  0.79140502    -0.78400
O1056       O  0.83221249  0.71229610  0.70820737    -0.82600
O1057       O  0.83465087  0.71674683  0.78642206    -0.77500
O1058       O  0.88141012  0.66665024  0.70967678    -0.79300
O1059       O  0.78017403  0.61478999  0.78673783    -0.82000
C1060       C  0.85955549  0.72560398  0.80185076     0.98800
C1061       C  0.85977857  0.72638428  0.69999257     1.06200
O1062       O  0.83230285  0.66475521  0.75044908    -1.11000
O1063       O  0.78468181  0.61615583  0.70731161    -0.73400
O1064       O  0.77802085  0.65508439  0.71242220    -0.76900
O1065       O  0.87654118  0.71545817  0.79423195    -0.77600
C1066       C  0.77209323  0.63058373  0.69777082     0.97700
O1067       O  0.78128456  0.65823352  0.79139451    -0.75500
O1068       O  0.84175359  0.62018648  0.71291625    -0.80700
C1069       C  0.86415975  0.63630461  0.80187786     1.00300
C1070       C  0.86687283  0.63936956  0.69957292     1.06200
O1071       O  0.88078440  0.66241193  0.78886821    -0.76400
C1072       C  0.77139378  0.63121712  0.80104554     1.04500
C1073       C  0.89754938  0.90972065  0.02922953     0.04700
C1074       C  0.89465988  0.88601476  0.00816512    -0.11500
C1075       C  0.91620020  0.89073800  0.98232831     0.02200
C1076       C  0.94264877  0.91903633  0.98038261    -0.10000
C1077       C  0.94649530  0.94274121  0.00253271     0.04700
C1078       C  0.92357348  0.93814595  0.02624452    -0.09400
H1079       H  0.87491924  0.86385627  0.01106131     0.10300
H1080       H  0.95962231  0.92305911  0.96070979     0.07800
H1081       H  0.92603612  0.95667056  0.04238348     0.07700
C1082       C  0.52570894  0.50013781  0.00088659     0.81800
N1083       N  0.52456231  0.52577213  0.00034766    -0.76500
C1084       C  0.49771561  0.52438191  0.00006553     0.84200
N1085       N  0.97192087  0.49713172  0.00048632    -0.76500
C1086       C  0.97437883  0.97225471  0.00100819     0.84300
N1087       N  0.00124027  0.97373500  0.00103418    -0.78200
C1088       C  0.97504500  0.58157009  0.97834062     0.04700
C1089       C  0.99464859  0.60546118  0.00067185    -0.11500
C1090       C  0.51544776  0.60317054  0.02256144     0.02200
C1091       C  0.51662912  0.57665656  0.02166327    -0.10000
C1092       C  0.99665375  0.55231247  0.00014761     0.04700
C1093       C  0.97581372  0.55483700  0.97868319    -0.09400
H1094       H  0.99377520  0.62593429  0.00087683     0.10300
H1095       H  0.53286758  0.57481340  0.03808792     0.07800
H1096       H  0.96053471  0.53619957  0.96178826     0.07700
C1097       C  0.58827712  0.98329117  0.02109056     0.04700
C1098       C  0.61153577  0.00505324  0.99968469    -0.11500
C1099       C  0.60615295  0.52317412  0.98105559     0.02200
C1100       C  0.57886597  0.52270774  0.98108672    -0.10000
C1101       C  0.55621812  0.00222395  0.00067663     0.04700
C1102       C  0.56036827  0.98161009  0.02078590    -0.09400
H1103       H  0.63299184  0.00629464  0.99926902     0.10300
H1104       H  0.57615561  0.53818184  0.96408937     0.07800
H1105       H  0.54199218  0.96454171  0.03654733     0.07700
Fe1106     Fe  0.68369361  0.80747741  0.24954981     1.65800
Fe1107     Fe  0.62249160  0.81594082  0.24711060     1.73200
Fe1108     Fe  0.69324180  0.87812278  0.24874944     1.54400
O1109       O  0.72120293  0.87777753  0.28831374    -0.80100
O1110       O  0.62418571  0.84362943  0.20615914    -0.78400
O1111       O  0.71369292  0.83149051  0.28996884    -0.82600
O1112       O  0.71515752  0.83208746  0.21104764    -0.77500
O1113       O  0.66908276  0.88399670  0.28862077    -0.79300
O1114       O  0.61604236  0.78456945  0.20877050    -0.82000
C1115       C  0.72730693  0.85848759  0.19823770     0.98800
C1116       C  0.72681435  0.85841482  0.30115963     1.06200
O1117       O  0.66649461  0.83385396  0.24848371    -1.11000
O1118       O  0.61515350  0.78591413  0.28776081    -0.73400
O1119       O  0.65438295  0.77949610  0.28825531    -0.76900
O1120       O  0.72066010  0.87760226  0.20904750    -0.77600
C1121       C  0.62896840  0.77343264  0.29993920     0.97700
O1122       O  0.65612862  0.77976107  0.20918582    -0.75500
O1123       O  0.62275352  0.84468224  0.28545299    -0.80700
C1124       C  0.64332517  0.86978019  0.19521290     1.00300
C1125       C  0.64198510  0.86969539  0.29902497     1.06200
O1126       O  0.66929437  0.88480253  0.20899120    -0.76400
C1127       C  0.63047649  0.77265138  0.19709383     1.04500
C1128       C  0.91468142  0.89438153  0.52532057     0.04700
C1129       C  0.89075725  0.88947463  0.50300936    -0.11500
C1130       C  0.89353252  0.91215634  0.47968570     0.02200
C1131       C  0.92058945  0.93998910  0.47922376    -0.10000
C1132       C  0.94488627  0.94470209  0.50064921     0.04700
C1133       C  0.94181863  0.92185726  0.52362492    -0.09400
H1134       H  0.87003806  0.86791141  0.50372996     0.10300
H1135       H  0.92294937  0.95780402  0.46168007     0.07800
H1136       H  0.96042355  0.92555240  0.54050842     0.07700
C1137       C  0.52687032  0.50339294  0.49612627     0.81800
N1138       N  0.99981214  0.97406391  0.49713948    -0.76500
C1139       C  0.97341256  0.97351130  0.49920044     0.84200
N1140       N  0.97342457  0.99970370  0.50018276    -0.76500
C1141       C  0.49901066  0.52765362  0.49992125     0.84300
N1142       N  0.52572499  0.52897579  0.49797611    -0.78200
C1143       C  0.97642198  0.58458160  0.52249903     0.04700
C1144       C  0.99465515  0.60784844  0.49874967    -0.11500
C1145       C  0.51463322  0.60524444  0.47604524     0.02200
C1146       C  0.51671396  0.57932570  0.47744406    -0.10000
C1147       C  0.99799677  0.55551724  0.50038522     0.04700
C1148       C  0.97784350  0.55819963  0.52286892    -0.09400
H1149       H  0.99363566  0.62826970  0.49824825     0.10300
H1150       H  0.53199826  0.57721607  0.45962286     0.07800
H1151       H  0.96346515  0.53992797  0.54077394     0.07700
C1152       C  0.58458918  0.98030788  0.47204202     0.04700
C1153       C  0.55787441  0.98097761  0.47215894    -0.11500
C1154       C  0.55478027  0.00100100  0.49462067     0.02200
C1155       C  0.57989400  0.52644858  0.51587232    -0.10000
C1156       C  0.60815558  0.52911307  0.51431521     0.04700
C1157       C  0.61299235  0.51171986  0.48959276    -0.09400
H1158       H  0.53956190  0.96596190  0.45472759     0.10300
H1159       H  0.57612398  0.54017456  0.53454735     0.07800
H1160       H  0.63462695  0.51329755  0.48854272     0.07700
C1161       C  0.57752298  0.72672909  0.37579419     0.14200
C1162       C  0.58365332  0.70327505  0.37830155     0.01200
C1163       C  0.60577490  0.70382634  0.35619478     0.16200
C1164       C  0.62118268  0.72714476  0.33155940     0.25600
C1165       C  0.61442369  0.75018776  0.32815210    -0.40800
C1166       C  0.59255653  0.74983097  0.35076925     0.32600
C1167       C  0.56617925  0.67768248  0.40295985     0.01300
F1168       F  0.61160974  0.68107280  0.35737998    -0.13100
F1169       F  0.58572676  0.77187338  0.34880499    -0.13600
C1170       C  0.53471116  0.66115730  0.40082303     0.16200
C1171       C  0.51804546  0.63733295  0.42436694     0.25600
C1172       C  0.53254926  0.62939619  0.45013489    -0.40700
C1173       C  0.56399015  0.64521484  0.45165277     0.32500
C1174       C  0.58071602  0.66938955  0.42841842     0.14300
F1175       F  0.52011817  0.66783478  0.37556175    -0.13100
F1176       F  0.57840872  0.63783300  0.47636640    -0.13600
F1177       F  0.98768303  0.62167037  0.42174242    -0.15900
F1178       F  0.61104884  0.68519486  0.43140284    -0.14400
F1179       F  0.55691142  0.72725483  0.39764000    -0.14400
F1180       F  0.64172820  0.72631236  0.30990687    -0.16000
C1181       C  0.64088446  0.92636083  0.36282633     0.14200
C1182       C  0.61169075  0.91013552  0.37654777     0.01200
C1183       C  0.59296021  0.87999568  0.36663719     0.16200
C1184       C  0.60297831  0.86650925  0.34223390     0.25600
C1185       C  0.63209941  0.88302745  0.32735327    -0.40800
C1186       C  0.65112766  0.91298938  0.33871880     0.32600
C1187       C  0.60103826  0.92524044  0.40078312     0.01300
F1188       F  0.56471419  0.86384229  0.37995830    -0.13100
F1189       F  0.67951857  0.92977691  0.32602077    -0.13600
C1190       C  0.59463726  0.94664433  0.38703235     0.16200
C1191       C  0.58819557  0.96381276  0.41021761     0.25600
C1192       C  0.58834424  0.95999645  0.44752030    -0.40700
C1193       C  0.59383071  0.93787204  0.46119260     0.32500
C1194       C  0.59992290  0.92045038  0.43792904     0.14300
F1195       F  0.59548121  0.95144944  0.35114426    -0.13100
F1196       F  0.59371645  0.93348956  0.49709451    -0.13600
F1197       F  0.63545960  0.51824178  0.41447719    -0.15900
F1198       F  0.60591519  0.89974414  0.45164998    -0.14400
F1199       F  0.65947263  0.95541884  0.37267578    -0.14400
F1200       F  0.58397414  0.83735261  0.33307697    -0.15800
C1201       C  0.81550485  0.88700641  0.44375696     0.14200
C1202       C  0.82116273  0.89317157  0.40696083     0.01200
C1203       C  0.85073805  0.90633725  0.39439917     0.16200
C1204       C  0.87422030  0.91277273  0.41807704     0.25600
C1205       C  0.86863275  0.90638995  0.45491822    -0.40800
C1206       C  0.83902290  0.89364925  0.46756057     0.32600
C1207       C  0.79615856  0.88462061  0.38133751     0.01300
F1208       F  0.85671676  0.91190384  0.35888708    -0.13100
F1209       F  0.83288937  0.88790646  0.50302608    -0.13600
C1210       C  0.79470941  0.90655037  0.36061000     0.16200
C1211       C  0.77192417  0.89820683  0.33509953     0.25600
C1212       C  0.75005882  0.86761545  0.32973299    -0.40700
C1213       C  0.75156993  0.84575831  0.35091363     0.32500
C1214       C  0.77432352  0.85421846  0.37640118     0.14300
F1215       F  0.81553772  0.93611742  0.36496254    -0.13100
F1216       F  0.73115077  0.81603815  0.34690697    -0.13600
F1217       F  0.77199122  0.92009373  0.31485755    -0.15900
F1218       F  0.77561681  0.83254671  0.39554180    -0.14400
F1219       F  0.78716387  0.87463154  0.45662361    -0.14400
F1220       F  0.90227643  0.92407203  0.40469765    -0.15800
C1221       C  0.61691395  0.93280115  0.05389091     0.14200
C1222       C  0.60860456  0.92904037  0.09012853     0.01200
C1223       C  0.59226858  0.94180488  0.10323269     0.16200
C1224       C  0.58498059  0.95877874  0.08064803     0.25600
C1225       C  0.59370413  0.96308524  0.04434875    -0.40800
C1226       C  0.60928756  0.94939224  0.03109304     0.32600
C1227       C  0.61771006  0.91261348  0.11468612     0.01300
F1228       F  0.58441964  0.93881338  0.13835141    -0.13100
F1229       F  0.61702229  0.95190785  0.99597196    -0.13600
C1230       C  0.64800328  0.92470953  0.12361401     0.16200
C1231       C  0.65648549  0.91045768  0.14898444     0.25600
C1232       C  0.63472951  0.88362589  0.16591553    -0.40700
C1233       C  0.60441366  0.87093425  0.15554218     0.32500
C1234       C  0.59606266  0.88543386  0.13038198     0.14300
F1235       F  0.66932786  0.95093391  0.10855968    -0.13100
F1236       F  0.58256241  0.84488434  0.17035228    -0.13600
F1237       F  0.68602908  0.92319789  0.15709478    -0.15900
F1238       F  0.56670266  0.87303773  0.12147877    -0.14400
F1239       F  0.63244129  0.92036797  0.04061337    -0.14400
F1240       F  0.57062603  0.97214863  0.09477777    -0.15800
C1241       C  0.55568409  0.64666012  0.10646787     0.14200
C1242       C  0.57116076  0.67634888  0.09362102     0.01200
C1243       C  0.56931147  0.68188337  0.05714623     0.16200
C1244       C  0.55177195  0.65807820  0.03384344     0.25600
C1245       C  0.53552282  0.62830607  0.04676612    -0.40800
C1246       C  0.53784027  0.62282898  0.08331030     0.32600
C1247       C  0.58731001  0.70171319  0.11876121     0.01300
F1248       F  0.58437311  0.71044829  0.04421867    -0.13100
F1249       F  0.52171251  0.59457098  0.09697262    -0.13600
C1250       C  0.61396031  0.70732001  0.13530258     0.16200
C1251       C  0.62842693  0.73073539  0.16014110     0.25600
C1252       C  0.61637003  0.74899241  0.16894951    -0.40700
C1253       C  0.58975225  0.74337951  0.15164497     0.32500
C1254       C  0.57545360  0.71998745  0.12690435     0.14300
F1255       F  0.62593856  0.69004364  0.12740587    -0.13100
F1256       F  0.57722009  0.76029192  0.15873968    -0.13600
F1257       F  0.65382075  0.73494181  0.17609572    -0.15900
F1258       F  0.54947257  0.71463949  0.11144118    -0.14400
F1259       F  0.55688014  0.64091542  0.14177472    -0.14400
F1260       F  0.55074606  0.66413585  0.99861313    -0.15800
C1261       C  0.79410622  0.90620375  0.13768447     0.14200
C1262       C  0.79842538  0.88417498  0.12181024     0.01200
C1263       C  0.77850485  0.85374769  0.12951305     0.16200
C1264       C  0.75490672  0.84535668  0.15344227     0.25600
C1265       C  0.75078495  0.86736817  0.17035649    -0.40800
C1266       C  0.77049269  0.89794609  0.16173138     0.32600
C1267       C  0.82402289  0.89267910  0.09769981     0.01300
F1268       F  0.78247273  0.83212215  0.11457463    -0.13100
F1269       F  0.76760459  0.92002116  0.17729103    -0.13600
C1270       C  0.85348047  0.90832542  0.11101057     0.16200
C1271       C  0.87755795  0.91415412  0.08879783     0.25600
C1272       C  0.87246809  0.90473319  0.05280718    -0.40700
C1273       C  0.84290920  0.88970385  0.03943360     0.32500
C1274       C  0.81892601  0.88353357  0.06177400     0.14300
F1275       F  0.85875185  0.91684553  0.14591542    -0.13100
F1276       F  0.83719721  0.88108838  0.00458341    -0.13600
F1277       F  0.90562208  0.92779228  0.10287013    -0.15900
F1278       F  0.79061762  0.86849317  0.04837744    -0.14400
F1279       F  0.81287591  0.93574636  0.12996032    -0.14400
F1280       F  0.73635674  0.81559721  0.16023446    -0.15800
C1281       C  0.70730625  0.61696000  0.86294719     0.14200
C1282       C  0.70275594  0.59157649  0.88201401     0.01200
C1283       C  0.72118735  0.57966345  0.87521603     0.16200
C1284       C  0.74369774  0.59268294  0.84924645     0.25600
C1285       C  0.74834822  0.61812777  0.82973557    -0.40800
C1286       C  0.73002964  0.63030428  0.83721454     0.32600
C1287       C  0.67781623  0.57642292  0.90775585     0.01300
F1288       F  0.71679999  0.55484961  0.89314523    -0.13100
F1289       F  0.73335830  0.65452127  0.81884078    -0.13600
C1290       C  0.64836247  0.55849528  0.89515298     0.16200
C1291       C  0.62490679  0.54189654  0.91915521     0.25600
C1292       C  0.63057217  0.54309009  0.95619105    -0.40700
C1293       C  0.66001904  0.56176594  0.96884229     0.32500
C1294       C  0.68349032  0.57828488  0.94474201     0.14300
F1295       F  0.64256908  0.55608326  0.85942753    -0.13100
F1296       F  0.66603824  0.56382274  0.00449948    -0.13600
F1297       F  0.59645258  0.03086277  0.90467954    -0.15900
F1298       F  0.71182438  0.59582026  0.95738210    -0.14400
F1299       F  0.68947927  0.62860631  0.86902635    -0.14400
F1300       F  0.76090956  0.58031642  0.84330148    -0.15800
C1301       C  0.64922527  0.56009550  0.60193851     0.14200
C1302       C  0.67888958  0.57848130  0.59015519     0.01200
C1303       C  0.68490816  0.58250227  0.55325358     0.16200
C1304       C  0.66167550  0.56757776  0.52842481     0.25600
C1305       C  0.63208767  0.54817300  0.54018705    -0.40800
C1306       C  0.62601425  0.54500246  0.57718754     0.32600
C1307       C  0.70356274  0.59281571  0.61648217     0.01300
F1308       F  0.71333059  0.60081895  0.54133538    -0.13100
F1309       F  0.59786630  0.52598135  0.58947891    -0.13600
C1310       C  0.72575345  0.58497007  0.61784059     0.16200
C1311       C  0.74833110  0.59750370  0.64386892     0.25600
C1312       C  0.74909731  0.61818289  0.66900946    -0.40700
C1313       C  0.72701378  0.62633983  0.66702388     0.32500
C1314       C  0.70445454  0.61367301  0.64109454     0.14300
F1315       F  0.72506532  0.56452421  0.59451341    -0.13100
F1316       F  0.72660771  0.64592488  0.69083662    -0.13600
F1317       F  0.76947114  0.58947286  0.64428874    -0.15900
F1318       F  0.68332214  0.62170413  0.64005646    -0.14400
F1319       F  0.64293356  0.55572781  0.63750656    -0.14400
F1320       F  0.66808871  0.57191763  0.49288055    -0.15800
C1321       C  0.88393420  0.58627402  0.85497254     0.14200
C1322       C  0.90390046  0.60648366  0.88065648     0.01200
C1323       C  0.90988746  0.63624370  0.88095963     0.16200
C1324       C  0.89646500  0.64575516  0.85582002     0.25600
C1325       C  0.87678344  0.62569105  0.82985738    -0.40800
C1326       C  0.87051212  0.59580233  0.82974639     0.32600
C1327       C  0.91975689  0.59722676  0.90602504     0.01300
F1328       F  0.92962214  0.65645676  0.90486198    -0.13100
F1329       F  0.85247676  0.57618941  0.80419373    -0.13600
C1330       C  0.93799586  0.58652231  0.89306290     0.16200
C1331       C  0.95522577  0.58048989  0.91671616     0.25600
C1332       C  0.95462009  0.58517766  0.95375397    -0.40700
C1333       C  0.93571474  0.59505099  0.96680388     0.32500
C1334       C  0.91838061  0.60094610  0.94315992     0.14300
F1335       F  0.94034767  0.58341671  0.85729455    -0.13100
F1336       F  0.93415436  0.59912544  0.00249076    -0.13600
F1337       F  0.97376444  0.57164968  0.90320728    -0.15900
F1338       F  0.90046035  0.61062299  0.95648671    -0.14400
F1339       F  0.87763506  0.55736952  0.85413031    -0.14400
F1340       F  0.90275648  0.67465276  0.85683829    -0.15800
C1341       C  0.88743046  0.58991018  0.64690835     0.14200
C1342       C  0.90645804  0.60988069  0.62047835     0.01200
C1343       C  0.91182690  0.63940100  0.61951495     0.16200
C1344       C  0.89866985  0.64895520  0.64485925     0.25600
C1345       C  0.87991388  0.62912752  0.67170184    -0.40800
C1346       C  0.87433791  0.59943221  0.67235240     0.32600
C1347       C  0.92218810  0.60064900  0.59519811     0.01300
F1348       F  0.93067777  0.65931633  0.59470281    -0.13100
F1349       F  0.85717192  0.57990242  0.69850365    -0.13600
C1350       C  0.91902577  0.60242571  0.55800088     0.16200
C1351       C  0.93619508  0.59653966  0.53426782     0.25600
C1352       C  0.95650709  0.58840824  0.54737433    -0.40700
C1353       C  0.95898260  0.58573656  0.58454134     0.32500
C1354       C  0.94195916  0.59181471  0.60826244     0.14300
F1355       F  0.89944202  0.61006863  0.54471312    -0.13100
F1356       F  0.97909291  0.57885150  0.59793926    -0.13600
F1357       F  0.93315716  0.59896631  0.49845621    -0.15900
F1358       F  0.94582434  0.59046204  0.64408003    -0.14400
F1359       F  0.88175712  0.56122169  0.64826939    -0.14400
F1360       F  0.90424954  0.67758848  0.64305800    -0.15800
C1361       C  0.91120531  0.79225553  0.63920825     0.14200
C1362       C  0.89096412  0.79973565  0.62463140     0.01200
C1363       C  0.86060598  0.78273796  0.63372713     0.16200
C1364       C  0.85037902  0.75849908  0.65732358     0.25600
C1365       C  0.87053096  0.75086563  0.67273088    -0.40800
C1366       C  0.90115545  0.76803147  0.66309793     0.32600
C1367       C  0.90091323  0.82495691  0.59934320     0.01300
F1368       F  0.84080924  0.78985456  0.61981779    -0.13100
F1369       F  0.92152612  0.76168784  0.67690684    -0.13600
C1370       C  0.89859878  0.81945614  0.56235579     0.16200
C1371       C  0.90365636  0.84225138  0.53816156     0.25600
C1372       C  0.91120848  0.87086359  0.55072015    -0.40700
C1373       C  0.91455214  0.87663802  0.58778373     0.32500
C1374       C  0.90930530  0.85374116  0.61197205     0.14300
F1375       F  0.89051129  0.79169902  0.54983228    -0.13100
F1376       F  0.92148423  0.90401096  0.60057198    -0.13600
F1377       F  0.90095785  0.83637720  0.50247537    -0.15900
F1378       F  0.91124550  0.85925898  0.64773246    -0.14400
F1379       F  0.94070087  0.80852267  0.63041792    -0.14400
F1380       F  0.82068715  0.74284613  0.66524702    -0.15800
C1381       C  0.87762382  0.79868115  0.84528236     0.14200
C1382       C  0.88653949  0.79559459  0.87984716     0.01200
C1383       C  0.88689218  0.76931237  0.88866399     0.16200
C1384       C  0.87860533  0.74654460  0.86312760     0.25600
C1385       C  0.86934989  0.74959404  0.82876558    -0.40800
C1386       C  0.86886081  0.77578627  0.82009002     0.32600
C1387       C  0.89437339  0.81948402  0.90676980     0.01300
F1388       F  0.89424626  0.76528917  0.92231346    -0.13100
F1389       F  0.86035109  0.77940982  0.78689262    -0.13600
C1390       C  0.87334152  0.82776057  0.91569318     0.16200
C1391       C  0.88085919  0.85132416  0.93944279     0.25600
C1392       C  0.90933337  0.86658856  0.95587233    -0.40700
C1393       C  0.93043826  0.85823513  0.94701906     0.32500
C1394       C  0.92302538  0.83492907  0.92249938     0.14300
F1395       F  0.84534586  0.81291308  0.90136315    -0.13100
F1396       F  0.95800551  0.87225150  0.96244731    -0.13600
F1397       F  0.86037210  0.85967158  0.94570589    -0.15900
F1398       F  0.94397307  0.82779976  0.91356767    -0.14400
F1399       F  0.87754797  0.82402582  0.83588253    -0.14400
F1400       F  0.87841749  0.72104547  0.87234654    -0.15800
loop_ 
_geom_bond_atom_site_label_1 
_geom_bond_atom_site_label_2 
_geom_bond_distance 
_geom_bond_site_symmetry_2 
_ccdc_geom_bond_type 
Fe1          O17   2.055       .  S
Fe1           O7   2.077       .  S
Fe1          O14   2.073       .  S
Fe1           O6   2.051       .  S
Fe1          O12   1.970       .  S
Fe2           O5   2.067       .  S
Fe2           O9   2.068       .  S
Fe2          O13   2.065       .  S
Fe2          O18   2.070       .  S
Fe2          O12   1.973       .  S
Fe3          O21   2.070       .  S
Fe3           O8   2.063       .  S
Fe3          O15   2.068       .  S
Fe3           O4   2.080       .  S
Fe3          O12   1.972       .  S
O4           C11   1.271       .  A
O5           C19   1.268       .  A
O6           C11   1.267       .  A
O7           C10   1.271       .  A
O8           C20   1.271       .  A
O9           C22   1.271       .  A
C10          O15   1.269       .  A
C10         C335   1.479       .  S
C11         C315   1.492       .  S
O13          C16   1.269       .  A
O14          C16   1.269       .  A
C16         C262   1.488       .  S
O17          C22   1.269       .  A
O18          C20   1.271       .  A
C19          O21   1.269       .  A
C19         C275   1.495       .  S
C20         C295   1.487       .  S
C22         C235   1.482       .  S
C23         C222   1.482       .  S
C23          C24   1.402       .  A
C23          C28   1.402       .  A
C24          C25   1.402   1_554  A
C24          H29   1.084       .  S
C25         C342   1.488       .  S
C25          C26   1.406       .  A
C26          C27   1.408   1_556  A
C26          H30   1.084       .  S
C27          C36   1.473       .  S
C27          C28   1.403       .  A
C28          H31   1.084       .  S
C32         C401   1.473       .  S
C32          N33   1.359       .  A
C32        N1087   1.357   1_545  A
N33          C34   1.358   1_455  A
C34         C742   1.476       .  S
C34         N735   1.360   1_545  A
N35         C734   1.360   1_565  A
N35         C386   1.361       .  A
C36          N37   1.356       .  A
C36         N385   1.360       .  A
N37        C1082   1.358       .  A
C38         C282   1.484       .  S
C38          C39   1.405   1_556  A
C38          C43   1.405       .  A
C39         C740   1.405       .  A
C39          H44   1.083       .  S
C40         C195   1.489       .  S
C40          C41   1.406       .  A
C40         C739   1.405   1_455  A
C41         C742   1.406   1_455  A
C41          H45   1.084       .  S
C42         C734   1.476       .  S
C42          C43   1.404   1_554  A
C42         C741   1.406       .  A
C43          H46   1.084       .  S
C47         C175   1.479       .  S
C47          C48   1.403       .  A
C47          C52   1.401       .  A
C48         C399   1.403   1_554  A
C48          H53   1.084       .  S
C49         C242   1.483       .  S
C49          C50   1.402       .  A
C49         C398   1.404       .  A
C50         C401   1.402   1_556  A
C50          H54   1.084       .  S
C51         C382   1.471       .  S
C51          C52   1.402       .  A
C51         C400   1.403   1_554  A
C52          H55   1.084       .  S
Fe56         O72   2.065       .  S
Fe56         O62   2.052       .  S
Fe56         O69   2.053       .  S
Fe56         O61   2.061       .  S
Fe56         O67   1.975       .  S
Fe57         O60   2.055       .  S
Fe57         O64   2.071       .  S
Fe57         O68   2.058       .  S
Fe57         O73   2.065       .  S
Fe57         O67   1.978       .  S
Fe58         O76   2.069       .  S
Fe58         O63   2.063       .  S
Fe58         O70   2.065       .  S
Fe58         O59   2.070       .  S
Fe58         O67   1.980       .  S
O59          C66   1.270       .  A
O60          C74   1.268       .  A
O61          C66   1.269       .  A
O62          C65   1.266       .  A
O63          C75   1.268       .  A
O64          C77   1.270       .  A
C65          O70   1.268       .  A
C65         C215   1.484       .  S
C66         C162   1.484       .  S
O68          C71   1.267       .  A
O69          C71   1.266       .  A
C71         C115   1.477       .  S
O72          C77   1.270       .  A
O73          C75   1.269       .  A
C74          O76   1.271       .  A
C74         C182   1.482       .  S
C75         C135   1.481       .  S
C77         C202   1.490       .  S
C78         C322   1.483       .  S
C78          C79   1.405       .  A
C78          C83   1.406       .  A
C79          C80   1.403       .  A
C79          H84   1.084       .  S
C80         C155   1.481       .  S
C80          C81   1.402       .  A
C81          C82   1.404       .  A
C81          H85   1.084       .  S
C82          C89   1.473       .  S
C82          C83   1.404       .  A
C83          H86   1.084       .  S
C87         C454   1.478       .  S
C87          N92   1.361       .  A
C87        N1138   1.359   1_445  A
N88          C89   1.361       .  A
N88        C1137   1.361       .  A
C89          N90   1.358       .  A
N90        C1141   1.356       .  A
C91         C797   1.474       .  S
C91          N92   1.362   1_655  A
C91        N1140   1.356   1_545  A
C93         C302   1.485       .  S
C93          C94   1.399       .  A
C93          C98   1.406       .  A
C94         C795   1.398       .  A
C94          H99   1.085       .  S
C95         C122   1.475       .  S
C95          C96   1.402       .  A
C95         C794   1.398   1_455  A
C96         C797   1.403   1_455  A
C96         H100   1.084       .  S
C97         C791   1.474       .  S
C97          C98   1.409       .  A
C97         C796   1.403       .  A
C98         H101   1.083       .  S
C102        C142   1.477       .  S
C102        C103   1.405       .  A
C102        C457   1.400       .  A
C103        C104   1.404       .  A
C103        H108   1.084       .  S
C104        C437   1.473       .  S
C104        C455   1.405       .  A
C105        C106   1.405       .  A
C105        C454   1.404       .  A
C105        H109   1.084       .  S
C106        C255   1.484       .  S
C106        C107   1.404   1_545  A
C107        C452   1.404       .  A
C107        H110   1.084       .  S
C111        C112   1.406       .  A
C111        C116   1.396       .  A
C111        F129   1.358       .  S
C112        C117   1.479       .  S
C112        C113   1.404       .  A
C113        C114   1.395       .  A
C113        F118   1.358       .  S
C114        C115   1.410       .  A
C114        F130   1.358       .  S
C115        C116   1.407       .  A
C116        F119   1.358       .  S
C117        C120   1.406       .  A
C117        C124   1.407       .  A
C120        C121   1.394       .  A
C120        F125   1.358       .  S
C121        C122   1.407       .  A
C121        F827   1.359   1_455  S
C122        C123   1.404       .  A
C123        C124   1.398       .  A
C123        F126   1.358       .  S
C124        F128   1.358       .  S
F127        C821   1.359       .  S
C131        C132   1.405       .  A
C131        C136   1.399       .  A
C131        F149   1.358       .  S
C132        C137   1.480       .  S
C132        C133   1.404       .  A
C133        C134   1.398       .  A
C133        F138   1.358       .  S
C134        C135   1.410       .  A
C134        F150   1.358       .  S
C135        C136   1.408       .  A
C136        F139   1.358       .  S
C137        C140   1.405       .  A
C137        C144   1.406       .  A
C140        C141   1.397       .  A
C140        F145   1.358       .  S
C141        C142   1.407       .  A
C141        F497   1.358       .  S
C142        C143   1.404       .  A
C143        C144   1.399       .  A
C143        F146   1.358       .  S
C144        F148   1.358       .  S
F147        C491   1.358       .  S
C151        C152   1.406       .  A
C151        C156   1.399       .  A
C151        F169   1.358       .  S
C152        C157   1.483       .  S
C152        C153   1.406       .  A
C153        C154   1.399       .  A
C153        F158   1.358       .  S
C154        C155   1.406       .  A
C154        F170   1.358       .  S
C155        C156   1.406       .  A
C156        F159   1.358       .  S
C157        C160   1.405       .  A
C157        C164   1.405       .  A
C160        C161   1.400       .  A
C160        F165   1.358       .  S
C161        C162   1.410       .  A
C161        F167   1.358       .  S
C162        C163   1.409       .  A
C163        C164   1.398       .  A
C163        F166   1.358       .  S
C164        F168   1.358       .  S
C171        C172   1.405       .  A
C171        C176   1.398       .  A
C171        F189   1.358       .  S
C172        C177   1.478       .  S
C172        C173   1.405       .  A
C173        C174   1.397       .  A
C173        F178   1.358       .  S
C174        C175   1.407       .  A
C174        F190   1.358       .  S
C175        C176   1.407       .  A
C176        F179   1.358   1_554  S
C177        C180   1.404       .  A
C177        C184   1.403       .  A
C180        C181   1.397       .  A
C180        F185   1.358       .  S
C181        C182   1.408       .  A
C181        F187   1.358       .  S
C182        C183   1.412       .  A
C183        C184   1.398       .  A
C183        F186   1.358       .  S
C184        F188   1.358       .  S
C191        C192   1.405       .  A
C191        C196   1.401       .  A
C191        F209   1.358       .  S
C192        C197   1.481       .  S
C192        C193   1.404       .  A
C193        C194   1.400       .  A
C193        F198   1.358       .  S
C194        C195   1.409       .  A
C194        F210   1.358       .  S
C195        C196   1.409       .  A
C196        F199   1.358       .  S
C197        C200   1.403       .  A
C197        C204   1.403       .  A
C200        C201   1.401       .  A
C200        F205   1.358       .  S
C201        C202   1.413       .  A
C201        F207   1.358       .  S
C202        C203   1.412       .  A
C203        C204   1.400       .  A
C203        F206   1.358       .  S
C204        F208   1.358       .  S
C211        C212   1.402       .  A
C211        C216   1.399       .  A
C211        F229   1.358       .  S
C212        C217   1.475       .  S
C212        C213   1.402       .  A
C213        C214   1.395       .  A
C213        F218   1.358       .  S
C214        C215   1.411       .  A
C214        F230   1.358       .  S
C215        C216   1.412       .  A
C216        F219   1.358       .  S
C217        C220   1.405       .  A
C217        C224   1.401       .  A
C220        C221   1.401       .  A
C220        F225   1.358       .  S
C221        C222   1.409       .  A
C221        F227   1.358       .  S
C222        C223   1.408       .  A
C223        C224   1.394       .  A
C223        F226   1.358       .  S
C224        F228   1.358       .  S
C231        C232   1.401       .  A
C231        C236   1.397       .  A
C231        F249   1.358       .  S
C232        C237   1.474       .  S
C232        C233   1.404       .  A
C233        C234   1.397       .  A
C233        F238   1.358       .  S
C234        C235   1.410       .  A
C234        F250   1.358       .  S
C235        C236   1.412       .  A
C236        F239   1.358       .  S
C237        C240   1.404       .  A
C237        C244   1.402       .  A
C240        C241   1.398       .  A
C240        F245   1.358       .  S
C241        C242   1.410       .  A
C241        F597   1.358       .  S
C242        C243   1.408       .  A
C243        C244   1.396       .  A
C243        F246   1.358   1_556  S
C244        F248   1.358       .  S
F247        C591   1.358       .  S
C251        C252   1.405       .  A
C251        C256   1.399       .  A
C251        F269   1.358       .  S
C252        C257   1.483       .  S
C252        C253   1.406       .  A
C253        C254   1.402       .  A
C253        F258   1.358       .  S
C254        C255   1.407       .  A
C254        F270   1.358       .  S
C255        C256   1.406       .  A
C256        F259   1.358       .  S
C257        C260   1.404       .  A
C257        C264   1.405       .  A
C260        C261   1.399       .  A
C260        F265   1.358       .  S
C261        C262   1.410       .  A
C261        F267   1.358       .  S
C262        C263   1.411       .  A
C263        C264   1.402       .  A
C263        F266   1.358       .  S
C264        F268   1.358       .  S
C271        C272   1.401       .  A
C271        C276   1.402       .  A
C271        F289   1.358       .  S
C272        C277   1.478       .  S
C272        C273   1.401       .  A
C273        C274   1.399       .  A
C273        F278   1.358       .  S
C274        C275   1.415       .  A
C274        F290   1.358       .  S
C275        C276   1.415       .  A
C276        F279   1.358       .  S
C277        C280   1.404       .  A
C277        C284   1.403       .  A
C280        C281   1.400       .  A
C280        F285   1.358       .  S
C281        C282   1.408       .  A
C281        F287   1.358       .  S
C282        C283   1.408       .  A
C283        C284   1.400       .  A
C283        F286   1.358   1_556  S
C284        F288   1.358       .  S
C291        C292   1.402       .  A
C291        C296   1.398       .  A
C291        F309   1.358       .  S
C292        C297   1.480       .  S
C292        C293   1.405       .  A
C293        C294   1.399       .  A
C293        F298   1.358       .  S
C294        C295   1.411       .  A
C294        F310   1.358       .  S
C295        C296   1.412       .  A
C296        F299   1.358       .  S
C297        C300   1.403       .  A
C297        C304   1.406       .  A
C300        C301   1.397       .  A
C300        F305   1.358       .  S
C301        C302   1.410       .  A
C301        F307   1.358       .  S
C302        C303   1.407       .  A
C303        C304   1.399       .  A
C303        F306   1.358       .  S
C304        F308   1.358       .  S
C311        C312   1.402       .  A
C311        C316   1.400       .  A
C311        F329   1.358       .  S
C312        C317   1.478       .  S
C312        C313   1.401       .  A
C313        C314   1.398       .  A
C313        F318   1.358       .  S
C314        C315   1.414       .  A
C314        F330   1.358       .  S
C315        C316   1.414       .  A
C316        F319   1.358       .  S
C317        C320   1.404       .  A
C317        C324   1.404       .  A
C320        C321   1.399       .  A
C320        F325   1.358       .  S
C321        C322   1.408       .  A
C321        F327   1.358       .  S
C322        C323   1.408       .  A
C323        C324   1.399       .  A
C323        F326   1.358       .  S
C324        F328   1.358       .  S
C331        C332   1.408       .  A
C331        C336   1.398       .  A
C331        F349   1.358       .  S
C332        C337   1.490       .  S
C332        C333   1.409       .  A
C333        C334   1.404       .  A
C333        F338   1.358       .  S
C334        C335   1.407       .  A
C334        F350   1.358       .  S
C335        C336   1.405       .  A
C336        F339   1.358       .  S
C337        C340   1.406       .  A
C337        C344   1.410       .  A
C340        C341   1.395       .  A
C340        F345   1.358       .  S
C341        C342   1.408       .  A
C341        F347   1.358       .  S
C342        C343   1.407       .  A
C343        C344   1.405       .  A
C343        F346   1.358       .  S
C344        F348   1.357       .  S
Fe351       O367   2.061       .  S
Fe351       O357   2.059       .  S
Fe351       O364   2.059       .  S
Fe351       O356   2.052       .  S
Fe351       O362   1.973       .  S
Fe352       O355   2.061       .  S
Fe352       O359   2.071       .  S
Fe352       O363   2.065       .  S
Fe352       O368   2.062       .  S
Fe352       O362   1.977       .  S
Fe353       O371   2.066       .  S
Fe353       O358   2.071       .  S
Fe353       O365   2.070       .  S
Fe353       O354   2.076       .  S
Fe353       O362   1.974       .  S
O354        C361   1.271       .  A
O355        C369   1.268       .  A
O356        C361   1.268       .  A
O357        C360   1.267       .  A
O358        C370   1.271       .  A
O359        C372   1.271       .  A
C360        O365   1.269       .  A
C360        C685   1.472       .  S
C361        C665   1.491       .  S
O363        C366   1.268       .  A
O364        C366   1.267       .  A
C366        C612   1.484       .  S
O367        C372   1.269       .  A
O368        C370   1.269       .  A
C369        O371   1.269       .  A
C369        C625   1.477       .  S
C370        C645   1.481       .  S
C372        C585   1.486       .  S
C373        C572   1.482       .  S
C373        C374   1.400       .  A
C373        C378   1.403       .  A
C374        C375   1.402   1_554  A
C374        H379   1.084       .  S
C375        C692   1.487       .  S
C375        C376   1.406       .  A
C376        C377   1.408   1_556  A
C376        H380   1.083       .  S
C377        C386   1.473       .  S
C377        C378   1.404       .  A
C378        H381   1.084       .  S
C382        N383   1.358       .  A
C382        N737   1.358   1_455  A
N383        C384   1.359   1_455  A
C384       C1092   1.474       .  S
C384       N1085   1.360       .  A
N385       C1084   1.360       .  A
C386        N387   1.357       .  A
N387        C732   1.357   1_565  A
C388        C632   1.482       .  S
C388        C389   1.405   1_556  A
C388        C393   1.404       .  A
C389       C1090   1.405       .  A
C389        H394   1.083       .  S
C390        C545   1.486       .  S
C390       C1089   1.405   1_455  A
C390        C391   1.405       .  A
C391       C1092   1.404   1_455  A
C391        H395   1.084       .  S
C392       C1084   1.474       .  S
C392       C1091   1.404       .  A
C392        C393   1.403   1_554  A
C393        H396   1.084       .  S
C397        C525   1.490       .  S
C397        C398   1.404   1_564  A
C397        C402   1.407       .  A
C398        H403   1.083       .  S
C399        C592   1.481       .  S
C399        C400   1.405       .  A
C400        H404   1.084       .  S
C401        C402   1.406   1_545  A
C402        H405   1.083       .  S
Fe406       O422   2.068       .  S
Fe406       O412   2.056       .  S
Fe406       O419   2.060       .  S
Fe406       O411   2.065       .  S
Fe406       O417   1.977       .  S
Fe407       O410   2.062       .  S
Fe407       O414   2.061       .  S
Fe407       O418   2.060       .  S
Fe407       O423   2.061       .  S
Fe407       O417   1.979       .  S
Fe408       O426   2.072       .  S
Fe408       O413   2.069       .  S
Fe408       O420   2.067       .  S
Fe408       O409   2.074       .  S
Fe408       O417   1.980       .  S
O409        C416   1.270       .  A
O410        C424   1.268       .  A
O411        C416   1.269       .  A
O412        C415   1.268       .  A
O413        C425   1.270       .  A
O414        C427   1.268       .  A
C415        O420   1.270       .  A
C415        C565   1.487       .  S
C416        C512   1.493       .  S
O418        C421   1.268       .  A
O419        C421   1.268       .  A
C421        C465   1.481       .  S
O422        C427   1.269       .  A
O423        C425   1.268       .  A
C424        O426   1.270       .  A
C424        C532   1.492       .  S
C425        C485   1.492       .  S
C427        C552   1.491       .  S
C428        C672   1.477       .  S
C428        C429   1.405       .  A
C428        C433   1.400       .  A
C429        C430   1.406       .  A
C429        H434   1.084       .  S
C430        C505   1.489       .  S
C430        C431   1.406       .  A
C431        C432   1.404       .  A
C431        H435   1.084       .  S
C432        C439   1.470       .  S
C432        C433   1.400       .  A
C433        H436   1.084       .  S
C437        N788   1.361       .  A
C437        N442   1.357       .  A
N438        C787   1.359   1_565  A
N438        C439   1.359       .  A
C439        N440   1.355       .  A
N440        C791   1.356   1_565  A
C441       C1147   1.469       .  S
C441        N790   1.356       .  A
C441        N442   1.355   1_655  A
C443        C652   1.478       .  S
C443        C444   1.401       .  A
C443        C448   1.404       .  A
C444       C1145   1.400       .  A
C444        H449   1.085       .  S
C445        C472   1.473       .  S
C445       C1144   1.400   1_455  A
C445        C446   1.400       .  A
C446       C1147   1.403   1_455  A
C446        H450   1.084       .  S
C447       C1141   1.469       .  S
C447       C1146   1.403       .  A
C447        C448   1.404       .  A
C448        H451   1.084       .  S
C452        C492   1.482       .  S
C452        C453   1.405       .  A
C453        C454   1.406   1_565  A
C453        H458   1.084       .  S
C455        C456   1.403       .  A
C455        H459   1.083       .  S
C456        C605   1.481       .  S
C456        C457   1.400       .  A
C457        H460   1.085       .  S
C461        C462   1.406       .  A
C461        C466   1.397       .  A
C461        F479   1.358       .  S
C462        C467   1.480       .  S
C462        C463   1.404       .  A
C463        C464   1.396       .  A
C463        F468   1.358       .  S
C464        C465   1.410       .  A
C464        F480   1.358       .  S
C465        C466   1.409       .  A
C466        F469   1.358       .  S
C467        C470   1.406       .  A
C467        C474   1.408       .  A
C470        C471   1.395       .  A
C470        F475   1.358       .  S
C471        C472   1.404       .  A
C471       F1177   1.358   1_455  S
C472        C473   1.404       .  A
C473        C474   1.399       .  A
C473        F476   1.358       .  S
C474        F478   1.358       .  S
F477       C1171   1.358       .  S
C481        C482   1.401       .  A
C481        C486   1.397       .  A
C481        F499   1.358       .  S
C482        C487   1.478       .  S
C482        C483   1.402       .  A
C483        C484   1.401       .  A
C483        F488   1.358       .  S
C484        C485   1.416       .  A
C484        F500   1.358       .  S
C485        C486   1.412       .  A
C486        F489   1.358       .  S
C487        C490   1.404       .  A
C487        C494   1.403       .  A
C490        C491   1.400       .  A
C490        F495   1.358       .  S
C491        C492   1.406       .  A
C492        C493   1.407       .  A
C493        C494   1.401       .  A
C493        F496   1.358       .  S
C494        F498   1.358       .  S
C501        C502   1.406       .  A
C501        C506   1.402       .  A
C501        F519   1.358       .  S
C502        C507   1.485       .  S
C502        C503   1.405       .  A
C503        C504   1.400       .  A
C503        F508   1.358       .  S
C504        C505   1.409       .  A
C504        F520   1.358       .  S
C505        C506   1.409       .  A
C506        F509   1.358       .  S
C507        C510   1.405       .  A
C507        C514   1.403       .  A
C510        C511   1.402       .  A
C510        F515   1.358       .  S
C511        C512   1.413       .  A
C511        F517   1.358       .  S
C512        C513   1.412       .  A
C513        C514   1.400       .  A
C513        F516   1.358       .  S
C514        F518   1.358       .  S
C521        C522   1.403       .  A
C521        C526   1.400       .  A
C521        F539   1.358       .  S
C522        C527   1.480       .  S
C522        C523   1.404       .  A
C523        C524   1.399       .  A
C523        F528   1.358       .  S
C524        C525   1.410       .  A
C524        F540   1.358       .  S
C525        C526   1.411       .  A
C526        F529   1.358   1_554  S
C527        C530   1.403       .  A
C527        C534   1.402       .  A
C530        C531   1.400       .  A
C530        F535   1.358       .  S
C531        C532   1.413       .  A
C531        F537   1.358       .  S
C532        C533   1.414       .  A
C533        C534   1.400       .  A
C533        F536   1.358       .  S
C534        F538   1.358       .  S
C541        C542   1.403       .  A
C541        C546   1.400       .  A
C541        F559   1.358       .  S
C542        C547   1.477       .  S
C542        C543   1.403       .  A
C543        C544   1.399       .  A
C543        F548   1.358       .  S
C544        C545   1.409       .  A
C544        F560   1.358   1_554  S
C545        C546   1.409       .  A
C546        F549   1.358       .  S
C547        C550   1.402       .  A
C547        C554   1.401       .  A
C550        C551   1.401       .  A
C550        F555   1.358       .  S
C551        C552   1.414       .  A
C551        F557   1.358       .  S
C552        C553   1.413       .  A
C553        C554   1.397       .  A
C553        F556   1.358       .  S
C554        F558   1.358       .  S
C561        C562   1.402       .  A
C561        C566   1.399       .  A
C561        F579   1.358       .  S
C562        C567   1.475       .  S
C562        C563   1.401       .  A
C563        C564   1.395       .  A
C563        F568   1.358       .  S
C564        C565   1.412       .  A
C564        F580   1.358       .  S
C565        C566   1.413       .  A
C566        F569   1.358       .  S
C567        C570   1.405       .  A
C567        C574   1.402       .  A
C570        C571   1.400       .  A
C570        F575   1.358       .  S
C571        C572   1.408       .  A
C571        F577   1.358       .  S
C572        C573   1.409       .  A
C573        C574   1.394       .  A
C573        F576   1.358       .  S
C574        F578   1.358       .  S
C581        C582   1.402       .  A
C581        C586   1.400       .  A
C581        F599   1.358       .  S
C582        C587   1.476       .  S
C582        C583   1.402       .  A
C583        C584   1.398       .  A
C583        F588   1.358       .  S
C584        C585   1.411       .  A
C584        F600   1.358       .  S
C585        C586   1.412       .  A
C586        F589   1.358       .  S
C587        C590   1.403       .  A
C587        C594   1.404       .  A
C590        C591   1.398       .  A
C590        F595   1.358       .  S
C591        C592   1.407       .  A
C592        C593   1.408       .  A
C593        C594   1.400       .  A
C593        F596   1.358   1_556  S
C594        F598   1.358       .  S
C601        C602   1.404       .  A
C601        C606   1.397       .  A
C601        F619   1.358       .  S
C602        C607   1.477       .  S
C602        C603   1.404       .  A
C603        C604   1.398       .  A
C603        F608   1.358       .  S
C604        C605   1.408       .  A
C604        F620   1.358       .  S
C605        C606   1.407       .  A
C606        F609   1.358       .  S
C607        C610   1.405       .  A
C607        C614   1.402       .  A
C610        C611   1.399       .  A
C610        F615   1.358       .  S
C611        C612   1.410       .  A
C611        F617   1.358       .  S
C612        C613   1.412       .  A
C613        C614   1.397       .  A
C613        F616   1.358       .  S
C614        F618   1.358       .  S
C621        C622   1.407       .  A
C621        C626   1.400       .  A
C621        F639   1.358       .  S
C622        C627   1.483       .  S
C622        C623   1.406       .  A
C623        C624   1.397       .  A
C623        F628   1.358       .  S
C624        C625   1.406       .  A
C624        F640   1.358       .  S
C625        C626   1.408       .  A
C626        F629   1.358       .  S
C627        C630   1.406       .  A
C627        C634   1.406       .  A
C630        C631   1.399       .  A
C630        F635   1.358       .  S
C631        C632   1.407       .  A
C631        F637   1.358       .  S
C632        C633   1.407       .  A
C633        C634   1.399       .  A
C633        F636   1.358   1_556  S
C634        F638   1.358       .  S
C641        C642   1.404       .  A
C641        C646   1.398       .  A
C641        F659   1.358       .  S
C642        C647   1.480       .  S
C642        C643   1.406       .  A
C643        C644   1.399       .  A
C643        F648   1.358       .  S
C644        C645   1.407       .  A
C644        F660   1.358       .  S
C645        C646   1.410       .  A
C646        F649   1.358       .  S
C647        C650   1.405       .  A
C647        C654   1.406       .  A
C650        C651   1.398       .  A
C650        F655   1.358       .  S
C651        C652   1.407       .  A
C651        F657   1.358       .  S
C652        C653   1.405       .  A
C653        C654   1.398       .  A
C653        F656   1.358       .  S
C654        F658   1.358       .  S
C661        C662   1.401       .  A
C661        C666   1.402       .  A
C661        F679   1.358       .  S
C662        C667   1.472       .  S
C662        C663   1.399       .  A
C663        C664   1.394       .  A
C663        F668   1.358       .  S
C664        C665   1.414       .  A
C664        F680   1.358       .  S
C665        C666   1.415       .  A
C666        F669   1.358       .  S
C667        C670   1.402       .  A
C667        C674   1.403       .  A
C670        C671   1.397       .  A
C670        F675   1.358       .  S
C671        C672   1.405       .  A
C671        F677   1.358       .  S
C672        C673   1.407       .  A
C673        C674   1.399       .  A
C673        F676   1.358       .  S
C674        F678   1.358       .  S
C681        C682   1.405       .  A
C681        C686   1.395       .  A
C681        F699   1.358       .  S
C682        C687   1.481       .  S
C682        C683   1.407       .  A
C683        C684   1.402       .  A
C683        F688   1.358       .  S
C684        C685   1.405       .  A
C684        F700   1.358       .  S
C685        C686   1.405       .  A
C686        F689   1.358       .  S
C687        C690   1.403       .  A
C687        C694   1.407       .  A
C690        C691   1.393       .  A
C690        F695   1.358       .  S
C691        C692   1.410       .  A
C691        F697   1.358       .  S
C692        C693   1.408       .  A
C693        C694   1.403       .  A
C693        F696   1.357       .  S
C694        F698   1.358       .  S
Fe701       O717   2.055       .  S
Fe701       O707   2.077       .  S
Fe701       O714   2.073       .  S
Fe701       O706   2.052       .  S
Fe701       O712   1.970       .  S
Fe702       O705   2.067       .  S
Fe702       O709   2.068       .  S
Fe702       O713   2.065       .  S
Fe702       O718   2.070       .  S
Fe702       O712   1.973       .  S
Fe703       O721   2.070       .  S
Fe703       O708   2.063       .  S
Fe703       O715   2.068       .  S
Fe703       O704   2.080       .  S
Fe703       O712   1.972       .  S
O704        C711   1.271       .  A
O705        C719   1.268       .  A
O706        C711   1.267       .  A
O707        C710   1.271       .  A
O708        C720   1.271       .  A
O709        C722   1.271       .  A
C710        O715   1.269       .  A
C710       C1035   1.479       .  S
C711       C1015   1.492       .  S
O713        C716   1.269       .  A
O714        C716   1.269       .  A
C716        C962   1.488       .  S
O717        C722   1.269       .  A
O718        C720   1.271       .  A
C719        O721   1.269       .  A
C719        C975   1.495       .  S
C720        C995   1.487       .  S
C722        C935   1.482       .  S
C723        C922   1.482       .  S
C723        C724   1.402       .  A
C723        C728   1.402       .  A
C724        C725   1.402   1_554  A
C724        H729   1.084       .  S
C725       C1042   1.488       .  S
C725        C726   1.406       .  A
C726        C727   1.408   1_556  A
C726        H730   1.084       .  S
C727        C736   1.473       .  S
C727        C728   1.403       .  A
C728        H731   1.084       .  S
C732       C1101   1.473       .  S
C732        N733   1.359       .  A
N733        C734   1.358       .  A
N735       C1086   1.361       .  A
C736       N1085   1.360       .  A
C736        N737   1.356       .  A
C738        C982   1.484       .  S
C738        C739   1.405   1_556  A
C738        C743   1.405       .  A
C739        H744   1.083       .  S
C740        C895   1.489       .  S
C740        C741   1.406       .  A
C741        H745   1.084       .  S
C742        C743   1.404   1_554  A
C743        H746   1.084       .  S
C747        C875   1.479       .  S
C747        C748   1.403       .  A
C747        C752   1.401       .  A
C748       C1099   1.403   1_554  A
C748        H753   1.084       .  S
C749        C942   1.483       .  S
C749       C1098   1.404       .  A
C749        C750   1.402       .  A
C750       C1101   1.402   1_556  A
C750        H754   1.084       .  S
C751       C1082   1.471       .  S
C751       C1100   1.403   1_554  A
C751        C752   1.402       .  A
C752        H755   1.084       .  S
Fe756       O772   2.065       .  S
Fe756       O762   2.052       .  S
Fe756       O769   2.053       .  S
Fe756       O761   2.061       .  S
Fe756       O767   1.975       .  S
Fe757       O760   2.055       .  S
Fe757       O764   2.071       .  S
Fe757       O768   2.058       .  S
Fe757       O773   2.065       .  S
Fe757       O767   1.978       .  S
Fe758       O776   2.069       .  S
Fe758       O763   2.063       .  S
Fe758       O770   2.065       .  S
Fe758       O759   2.070       .  S
Fe758       O767   1.980       .  S
O759        C766   1.270       .  A
O760        C774   1.268       .  A
O761        C766   1.269       .  A
O762        C765   1.266       .  A
O763        C775   1.268       .  A
O764        C777   1.270       .  A
C765        O770   1.268       .  A
C765        C915   1.484       .  S
C766        C862   1.484       .  S
O768        C771   1.267       .  A
O769        C771   1.266       .  A
C771        C815   1.477       .  S
O772        C777   1.270       .  A
O773        C775   1.269       .  A
C774        O776   1.271       .  A
C774        C882   1.482       .  S
C775        C835   1.481       .  S
C777        C902   1.490       .  S
C778       C1022   1.483       .  S
C778        C779   1.405       .  A
C778        C783   1.406       .  A
C779        C780   1.403       .  A
C779        H784   1.084       .  S
C780        C855   1.481       .  S
C780        C781   1.402       .  A
C781        C782   1.404       .  A
C781        H785   1.084       .  S
C782        C789   1.473       .  S
C782        C783   1.404       .  A
C783        H786   1.084       .  S
C787       C1154   1.478       .  S
C787        N792   1.361       .  A
N788        C789   1.361   1_455  A
C789        N790   1.358       .  A
C791        N792   1.362       .  A
C793       C1002   1.485       .  S
C793        C794   1.399       .  A
C793        C798   1.406       .  A
C794        H799   1.085       .  S
C795        C822   1.475       .  S
C795        C796   1.402       .  A
C796        H800   1.084       .  S
C797        C798   1.409       .  A
C798        H801   1.083       .  S
C802        C842   1.477       .  S
C802        C803   1.405       .  A
C802       C1157   1.400       .  A
C803        C804   1.404       .  A
C803        H808   1.084       .  S
C804       C1137   1.473       .  S
C804       C1155   1.405       .  A
C805       C1154   1.404       .  A
C805        C806   1.405       .  A
C805        H809   1.084       .  S
C806        C955   1.484       .  S
C806        C807   1.404   1_545  A
C807       C1152   1.404       .  A
C807        H810   1.084       .  S
C811        C812   1.406       .  A
C811        C816   1.396       .  A
C811        F829   1.358       .  S
C812        C817   1.479       .  S
C812        C813   1.404       .  A
C813        C814   1.395       .  A
C813        F818   1.358       .  S
C814        C815   1.410       .  A
C814        F830   1.358       .  S
C815        C816   1.407       .  A
C816        F819   1.358       .  S
C817        C820   1.406       .  A
C817        C824   1.407       .  A
C820        C821   1.394       .  A
C820        F825   1.358       .  S
C821        C822   1.407       .  A
C822        C823   1.404       .  A
C823        C824   1.398       .  A
C823        F826   1.358       .  S
C824        F828   1.358       .  S
C831        C832   1.405       .  A
C831        C836   1.399       .  A
C831        F849   1.358       .  S
C832        C837   1.480       .  S
C832        C833   1.404       .  A
C833        C834   1.398       .  A
C833        F838   1.358       .  S
C834        C835   1.410       .  A
C834        F850   1.358       .  S
C835        C836   1.408       .  A
C836        F839   1.358       .  S
C837        C840   1.405       .  A
C837        C844   1.406       .  A
C840        C841   1.397       .  A
C840        F845   1.358       .  S
C841        C842   1.407       .  A
C841       F1197   1.358       .  S
C842        C843   1.404       .  A
C843        C844   1.399       .  A
C843        F846   1.358       .  S
C844        F848   1.358       .  S
F847       C1191   1.358       .  S
C851        C852   1.406       .  A
C851        C856   1.399       .  A
C851        F869   1.358       .  S
C852        C857   1.483       .  S
C852        C853   1.406       .  A
C853        C854   1.399       .  A
C853        F858   1.358       .  S
C854        C855   1.406       .  A
C854        F870   1.358       .  S
C855        C856   1.406       .  A
C856        F859   1.358       .  S
C857        C860   1.405       .  A
C857        C864   1.405       .  A
C860        C861   1.400       .  A
C860        F865   1.358       .  S
C861        C862   1.410       .  A
C861        F867   1.358       .  S
C862        C863   1.409       .  A
C863        C864   1.398       .  A
C863        F866   1.358       .  S
C864        F868   1.358       .  S
C871        C872   1.405       .  A
C871        C876   1.398       .  A
C871        F889   1.358       .  S
C872        C877   1.478       .  S
C872        C873   1.405       .  A
C873        C874   1.397       .  A
C873        F878   1.358       .  S
C874        C875   1.407       .  A
C874        F890   1.358       .  S
C875        C876   1.407       .  A
C876        F879   1.358   1_554  S
C877        C880   1.404       .  A
C877        C884   1.403       .  A
C880        C881   1.397       .  A
C880        F885   1.358       .  S
C881        C882   1.408       .  A
C881        F887   1.358       .  S
C882        C883   1.412       .  A
C883        C884   1.398       .  A
C883        F886   1.358       .  S
C884        F888   1.358       .  S
C891        C892   1.405       .  A
C891        C896   1.401       .  A
C891        F909   1.358       .  S
C892        C897   1.481       .  S
C892        C893   1.404       .  A
C893        C894   1.400       .  A
C893        F898   1.358       .  S
C894        C895   1.409       .  A
C894        F910   1.358       .  S
C895        C896   1.409       .  A
C896        F899   1.358       .  S
C897        C900   1.403       .  A
C897        C904   1.403       .  A
C900        C901   1.401       .  A
C900        F905   1.358       .  S
C901        C902   1.413       .  A
C901        F907   1.358       .  S
C902        C903   1.412       .  A
C903        C904   1.400       .  A
C903        F906   1.358       .  S
C904        F908   1.358       .  S
C911        C912   1.402       .  A
C911        C916   1.399       .  A
C911        F929   1.358       .  S
C912        C917   1.475       .  S
C912        C913   1.402       .  A
C913        C914   1.395       .  A
C913        F918   1.358       .  S
C914        C915   1.411       .  A
C914        F930   1.358       .  S
C915        C916   1.412       .  A
C916        F919   1.358       .  S
C917        C920   1.405       .  A
C917        C924   1.401       .  A
C920        C921   1.401       .  A
C920        F925   1.358       .  S
C921        C922   1.409       .  A
C921        F927   1.358       .  S
C922        C923   1.408       .  A
C923        C924   1.394       .  A
C923        F926   1.358       .  S
C924        F928   1.358       .  S
C931        C932   1.401       .  A
C931        C936   1.397       .  A
C931        F949   1.358       .  S
C932        C937   1.474       .  S
C932        C933   1.404       .  A
C933        C934   1.397       .  A
C933        F938   1.358       .  S
C934        C935   1.410       .  A
C934        F950   1.358       .  S
C935        C936   1.412       .  A
C936        F939   1.358       .  S
C937        C940   1.404       .  A
C937        C944   1.402       .  A
C940        C941   1.398       .  A
C940        F945   1.358       .  S
C941        C942   1.410       .  A
C941       F1297   1.358       .  S
C942        C943   1.408       .  A
C943        C944   1.396       .  A
C943        F946   1.358   1_556  S
C944        F948   1.358       .  S
F947       C1291   1.358       .  S
C951        C952   1.405       .  A
C951        C956   1.399       .  A
C951        F969   1.358       .  S
C952        C957   1.483       .  S
C952        C953   1.406       .  A
C953        C954   1.402       .  A
C953        F958   1.358       .  S
C954        C955   1.407       .  A
C954        F970   1.358       .  S
C955        C956   1.406       .  A
C956        F959   1.358       .  S
C957        C960   1.404       .  A
C957        C964   1.405       .  A
C960        C961   1.399       .  A
C960        F965   1.358       .  S
C961        C962   1.410       .  A
C961        F967   1.358       .  S
C962        C963   1.411       .  A
C963        C964   1.402       .  A
C963        F966   1.358       .  S
C964        F968   1.358       .  S
C971        C972   1.401       .  A
C971        C976   1.402       .  A
C971        F989   1.358       .  S
C972        C977   1.478       .  S
C972        C973   1.401       .  A
C973        C974   1.399       .  A
C973        F978   1.358       .  S
C974        C975   1.415       .  A
C974        F990   1.358       .  S
C975        C976   1.415       .  A
C976        F979   1.358       .  S
C977        C980   1.404       .  A
C977        C984   1.403       .  A
C980        C981   1.400       .  A
C980        F985   1.358       .  S
C981        C982   1.408       .  A
C981        F987   1.358       .  S
C982        C983   1.408       .  A
C983        C984   1.400       .  A
C983        F986   1.358   1_556  S
C984        F988   1.358       .  S
C991        C992   1.402       .  A
C991        C996   1.398       .  A
C991       F1009   1.358       .  S
C992        C997   1.480       .  S
C992        C993   1.405       .  A
C993        C994   1.399       .  A
C993        F998   1.358       .  S
C994        C995   1.411       .  A
C994       F1010   1.358       .  S
C995        C996   1.412       .  A
C996        F999   1.358       .  S
C997       C1000   1.403       .  A
C997       C1004   1.406       .  A
C1000      C1001   1.397       .  A
C1000      F1005   1.358       .  S
C1001      C1002   1.410       .  A
C1001      F1007   1.358       .  S
C1002      C1003   1.407       .  A
C1003      C1004   1.399       .  A
C1003      F1006   1.358       .  S
C1004      F1008   1.358       .  S
C1011      C1012   1.402       .  A
C1011      C1016   1.400       .  A
C1011      F1029   1.358       .  S
C1012      C1017   1.478       .  S
C1012      C1013   1.401       .  A
C1013      C1014   1.398       .  A
C1013      F1018   1.358       .  S
C1014      C1015   1.414       .  A
C1014      F1030   1.358       .  S
C1015      C1016   1.414       .  A
C1016      F1019   1.358       .  S
C1017      C1020   1.404       .  A
C1017      C1024   1.404       .  A
C1020      C1021   1.399       .  A
C1020      F1025   1.358       .  S
C1021      C1022   1.408       .  A
C1021      F1027   1.358       .  S
C1022      C1023   1.408       .  A
C1023      C1024   1.399       .  A
C1023      F1026   1.358       .  S
C1024      F1028   1.358       .  S
C1031      C1032   1.408       .  A
C1031      C1036   1.398       .  A
C1031      F1049   1.358       .  S
C1032      C1037   1.490       .  S
C1032      C1033   1.409       .  A
C1033      C1034   1.404       .  A
C1033      F1038   1.358       .  S
C1034      C1035   1.407       .  A
C1034      F1050   1.358       .  S
C1035      C1036   1.405       .  A
C1036      F1039   1.358       .  S
C1037      C1040   1.406       .  A
C1037      C1044   1.410       .  A
C1040      C1041   1.395       .  A
C1040      F1045   1.358       .  S
C1041      C1042   1.408       .  A
C1041      F1047   1.358       .  S
C1042      C1043   1.407       .  A
C1043      C1044   1.405       .  A
C1043      F1046   1.358       .  S
C1044      F1048   1.357       .  S
Fe1051     O1067   2.061       .  S
Fe1051     O1057   2.059       .  S
Fe1051     O1064   2.059       .  S
Fe1051     O1056   2.052       .  S
Fe1051     O1062   1.973       .  S
Fe1052     O1055   2.061       .  S
Fe1052     O1059   2.071       .  S
Fe1052     O1063   2.065       .  S
Fe1052     O1068   2.062       .  S
Fe1052     O1062   1.977       .  S
Fe1053     O1071   2.066       .  S
Fe1053     O1058   2.071       .  S
Fe1053     O1065   2.070       .  S
Fe1053     O1054   2.076       .  S
Fe1053     O1062   1.975       .  S
O1054      C1061   1.271       .  A
O1055      C1069   1.268       .  A
O1056      C1061   1.268       .  A
O1057      C1060   1.267       .  A
O1058      C1070   1.271       .  A
O1059      C1072   1.271       .  A
C1060      O1065   1.269       .  A
C1060      C1385   1.472       .  S
C1061      C1365   1.491       .  S
O1063      C1066   1.268       .  A
O1064      C1066   1.267       .  A
C1066      C1312   1.484       .  S
O1067      C1072   1.269       .  A
O1068      C1070   1.269       .  A
C1069      O1071   1.269       .  A
C1069      C1325   1.477       .  S
C1070      C1345   1.481       .  S
C1072      C1285   1.486       .  S
C1073      C1272   1.482       .  S
C1073      C1074   1.400       .  A
C1073      C1078   1.403       .  A
C1074      C1075   1.402   1_554  A
C1074      H1079   1.084       .  S
C1075      C1392   1.487       .  S
C1075      C1076   1.406       .  A
C1076      C1077   1.408   1_556  A
C1076      H1080   1.083       .  S
C1077      C1086   1.473       .  S
C1077      C1078   1.404       .  A
C1078      H1081   1.084       .  S
C1082      N1083   1.358       .  A
N1083      C1084   1.359       .  A
C1086      N1087   1.357   1_655  A
C1088      C1332   1.482       .  S
C1088      C1089   1.405   1_556  A
C1088      C1093   1.404       .  A
C1089      H1094   1.083       .  S
C1090      C1245   1.486       .  S
C1090      C1091   1.405       .  A
C1091      H1095   1.084       .  S
C1092      C1093   1.403   1_554  A
C1093      H1096   1.084       .  S
C1097      C1225   1.490       .  S
C1097      C1098   1.404   1_564  A
C1097      C1102   1.407       .  A
C1098      H1103   1.083       .  S
C1099      C1292   1.481       .  S
C1099      C1100   1.405       .  A
C1100      H1104   1.084       .  S
C1101      C1102   1.406   1_545  A
C1102      H1105   1.083       .  S
Fe1106     O1122   2.068       .  S
Fe1106     O1112   2.056       .  S
Fe1106     O1119   2.060       .  S
Fe1106     O1111   2.065       .  S
Fe1106     O1117   1.977       .  S
Fe1107     O1110   2.062       .  S
Fe1107     O1114   2.061       .  S
Fe1107     O1118   2.060       .  S
Fe1107     O1123   2.061       .  S
Fe1107     O1117   1.979       .  S
Fe1108     O1126   2.072       .  S
Fe1108     O1113   2.069       .  S
Fe1108     O1120   2.067       .  S
Fe1108     O1109   2.074       .  S
Fe1108     O1117   1.980       .  S
O1109      C1116   1.270       .  A
O1110      C1124   1.268       .  A
O1111      C1116   1.269       .  A
O1112      C1115   1.268       .  A
O1113      C1125   1.270       .  A
O1114      C1127   1.268       .  A
C1115      O1120   1.270       .  A
C1115      C1265   1.487       .  S
C1116      C1212   1.493       .  S
O1118      C1121   1.268       .  A
O1119      C1121   1.268       .  A
C1121      C1165   1.481       .  S
O1122      C1127   1.269       .  A
O1123      C1125   1.268       .  A
C1124      O1126   1.270       .  A
C1124      C1232   1.492       .  S
C1125      C1185   1.492       .  S
C1127      C1252   1.491       .  S
C1128      C1372   1.477       .  S
C1128      C1129   1.405       .  A
C1128      C1133   1.400       .  A
C1129      C1130   1.406       .  A
C1129      H1134   1.084       .  S
C1130      C1205   1.488       .  S
C1130      C1131   1.406       .  A
C1131      C1132   1.404       .  A
C1131      H1135   1.084       .  S
C1132      C1139   1.470       .  S
C1132      C1133   1.400       .  A
C1133      H1136   1.084       .  S
C1137      N1142   1.357       .  A
N1138      C1139   1.359       .  A
C1139      N1140   1.355       .  A
C1141      N1142   1.355       .  A
C1143      C1352   1.478       .  S
C1143      C1144   1.401       .  A
C1143      C1148   1.404       .  A
C1144      H1149   1.085       .  S
C1145      C1172   1.473       .  S
C1145      C1146   1.400       .  A
C1146      H1150   1.084       .  S
C1147      C1148   1.404       .  A
C1148      H1151   1.084       .  S
C1152      C1192   1.482       .  S
C1152      C1153   1.405       .  A
C1153      C1154   1.406   1_565  A
C1153      H1158   1.084       .  S
C1155      C1156   1.403       .  A
C1155      H1159   1.083       .  S
C1156      C1305   1.481       .  S
C1156      C1157   1.400       .  A
C1157      H1160   1.085       .  S
C1161      C1162   1.406       .  A
C1161      C1166   1.397       .  A
C1161      F1179   1.358       .  S
C1162      C1167   1.480       .  S
C1162      C1163   1.404       .  A
C1163      C1164   1.396       .  A
C1163      F1168   1.358       .  S
C1164      C1165   1.410       .  A
C1164      F1180   1.358       .  S
C1165      C1166   1.409       .  A
C1166      F1169   1.358       .  S
C1167      C1170   1.406       .  A
C1167      C1174   1.408       .  A
C1170      C1171   1.395       .  A
C1170      F1175   1.358       .  S
C1171      C1172   1.404       .  A
C1172      C1173   1.404       .  A
C1173      C1174   1.399       .  A
C1173      F1176   1.358       .  S
C1174      F1178   1.358       .  S
C1181      C1182   1.401       .  A
C1181      C1186   1.397       .  A
C1181      F1199   1.358       .  S
C1182      C1187   1.478       .  S
C1182      C1183   1.402       .  A
C1183      C1184   1.401       .  A
C1183      F1188   1.358       .  S
C1184      C1185   1.416       .  A
C1184      F1200   1.358       .  S
C1185      C1186   1.412       .  A
C1186      F1189   1.358       .  S
C1187      C1190   1.404       .  A
C1187      C1194   1.403       .  A
C1190      C1191   1.400       .  A
C1190      F1195   1.358       .  S
C1191      C1192   1.406       .  A
C1192      C1193   1.407       .  A
C1193      C1194   1.401       .  A
C1193      F1196   1.358       .  S
C1194      F1198   1.358       .  S
C1201      C1202   1.406       .  A
C1201      C1206   1.402       .  A
C1201      F1219   1.358       .  S
C1202      C1207   1.485       .  S
C1202      C1203   1.405       .  A
C1203      C1204   1.400       .  A
C1203      F1208   1.358       .  S
C1204      C1205   1.409       .  A
C1204      F1220   1.358       .  S
C1205      C1206   1.409       .  A
C1206      F1209   1.358       .  S
C1207      C1210   1.405       .  A
C1207      C1214   1.403       .  A
C1210      C1211   1.402       .  A
C1210      F1215   1.358       .  S
C1211      C1212   1.413       .  A
C1211      F1217   1.358       .  S
C1212      C1213   1.412       .  A
C1213      C1214   1.400       .  A
C1213      F1216   1.358       .  S
C1214      F1218   1.358       .  S
C1221      C1222   1.403       .  A
C1221      C1226   1.400       .  A
C1221      F1239   1.358       .  S
C1222      C1227   1.480       .  S
C1222      C1223   1.404       .  A
C1223      C1224   1.399       .  A
C1223      F1228   1.358       .  S
C1224      C1225   1.410       .  A
C1224      F1240   1.358       .  S
C1225      C1226   1.411       .  A
C1226      F1229   1.358   1_554  S
C1227      C1230   1.403       .  A
C1227      C1234   1.402       .  A
C1230      C1231   1.400       .  A
C1230      F1235   1.358       .  S
C1231      C1232   1.413       .  A
C1231      F1237   1.358       .  S
C1232      C1233   1.414       .  A
C1233      C1234   1.400       .  A
C1233      F1236   1.358       .  S
C1234      F1238   1.358       .  S
C1241      C1242   1.403       .  A
C1241      C1246   1.400       .  A
C1241      F1259   1.358       .  S
C1242      C1247   1.477       .  S
C1242      C1243   1.403       .  A
C1243      C1244   1.399       .  A
C1243      F1248   1.358       .  S
C1244      C1245   1.409       .  A
C1244      F1260   1.358   1_554  S
C1245      C1246   1.409       .  A
C1246      F1249   1.358       .  S
C1247      C1250   1.402       .  A
C1247      C1254   1.401       .  A
C1250      C1251   1.401       .  A
C1250      F1255   1.358       .  S
C1251      C1252   1.414       .  A
C1251      F1257   1.358       .  S
C1252      C1253   1.413       .  A
C1253      C1254   1.397       .  A
C1253      F1256   1.358       .  S
C1254      F1258   1.358       .  S
C1261      C1262   1.402       .  A
C1261      C1266   1.399       .  A
C1261      F1279   1.358       .  S
C1262      C1267   1.475       .  S
C1262      C1263   1.401       .  A
C1263      C1264   1.395       .  A
C1263      F1268   1.358       .  S
C1264      C1265   1.412       .  A
C1264      F1280   1.358       .  S
C1265      C1266   1.413       .  A
C1266      F1269   1.358       .  S
C1267      C1270   1.405       .  A
C1267      C1274   1.402       .  A
C1270      C1271   1.400       .  A
C1270      F1275   1.358       .  S
C1271      C1272   1.408       .  A
C1271      F1277   1.358       .  S
C1272      C1273   1.409       .  A
C1273      C1274   1.394       .  A
C1273      F1276   1.358       .  S
C1274      F1278   1.358       .  S
C1281      C1282   1.402       .  A
C1281      C1286   1.400       .  A
C1281      F1299   1.358       .  S
C1282      C1287   1.476       .  S
C1282      C1283   1.402       .  A
C1283      C1284   1.398       .  A
C1283      F1288   1.358       .  S
C1284      C1285   1.411       .  A
C1284      F1300   1.358       .  S
C1285      C1286   1.412       .  A
C1286      F1289   1.358       .  S
C1287      C1290   1.403       .  A
C1287      C1294   1.404       .  A
C1290      C1291   1.398       .  A
C1290      F1295   1.358       .  S
C1291      C1292   1.407       .  A
C1292      C1293   1.408       .  A
C1293      C1294   1.400       .  A
C1293      F1296   1.358   1_556  S
C1294      F1298   1.358       .  S
C1301      C1302   1.404       .  A
C1301      C1306   1.397       .  A
C1301      F1319   1.358       .  S
C1302      C1307   1.477       .  S
C1302      C1303   1.404       .  A
C1303      C1304   1.398       .  A
C1303      F1308   1.358       .  S
C1304      C1305   1.408       .  A
C1304      F1320   1.358       .  S
C1305      C1306   1.407       .  A
C1306      F1309   1.358       .  S
C1307      C1310   1.405       .  A
C1307      C1314   1.402       .  A
C1310      C1311   1.399       .  A
C1310      F1315   1.358       .  S
C1311      C1312   1.410       .  A
C1311      F1317   1.358       .  S
C1312      C1313   1.412       .  A
C1313      C1314   1.397       .  A
C1313      F1316   1.358       .  S
C1314      F1318   1.358       .  S
C1321      C1322   1.407       .  A
C1321      C1326   1.400       .  A
C1321      F1339   1.358       .  S
C1322      C1327   1.483       .  S
C1322      C1323   1.406       .  A
C1323      C1324   1.397       .  A
C1323      F1328   1.358       .  S
C1324      C1325   1.406       .  A
C1324      F1340   1.358       .  S
C1325      C1326   1.408       .  A
C1326      F1329   1.358       .  S
C1327      C1330   1.406       .  A
C1327      C1334   1.406       .  A
C1330      C1331   1.399       .  A
C1330      F1335   1.358       .  S
C1331      C1332   1.407       .  A
C1331      F1337   1.358       .  S
C1332      C1333   1.407       .  A
C1333      C1334   1.399       .  A
C1333      F1336   1.358   1_556  S
C1334      F1338   1.358       .  S
C1341      C1342   1.404       .  A
C1341      C1346   1.398       .  A
C1341      F1359   1.358       .  S
C1342      C1347   1.480       .  S
C1342      C1343   1.406       .  A
C1343      C1344   1.399       .  A
C1343      F1348   1.358       .  S
C1344      C1345   1.407       .  A
C1344      F1360   1.358       .  S
C1345      C1346   1.410       .  A
C1346      F1349   1.358       .  S
C1347      C1350   1.405       .  A
C1347      C1354   1.406       .  A
C1350      C1351   1.398       .  A
C1350      F1355   1.358       .  S
C1351      C1352   1.407       .  A
C1351      F1357   1.358       .  S
C1352      C1353   1.405       .  A
C1353      C1354   1.398       .  A
C1353      F1356   1.358       .  S
C1354      F1358   1.358       .  S
C1361      C1362   1.401       .  A
C1361      C1366   1.402       .  A
C1361      F1379   1.358       .  S
C1362      C1367   1.472       .  S
C1362      C1363   1.399       .  A
C1363      C1364   1.394       .  A
C1363      F1368   1.358       .  S
C1364      C1365   1.414       .  A
C1364      F1380   1.358       .  S
C1365      C1366   1.415       .  A
C1366      F1369   1.358       .  S
C1367      C1370   1.402       .  A
C1367      C1374   1.403       .  A
C1370      C1371   1.397       .  A
C1370      F1375   1.358       .  S
C1371      C1372   1.405       .  A
C1371      F1377   1.358       .  S
C1372      C1373   1.407       .  A
C1373      C1374   1.399       .  A
C1373      F1376   1.358       .  S
C1374      F1378   1.358       .  S
C1381      C1382   1.405       .  A
C1381      C1386   1.395       .  A
C1381      F1399   1.358       .  S
C1382      C1387   1.481       .  S
C1382      C1383   1.407       .  A
C1383      C1384   1.402       .  A
C1383      F1388   1.358       .  S
C1384      C1385   1.405       .  A
C1384      F1400   1.358       .  S
C1385      C1386   1.405       .  A
C1386      F1389   1.358       .  S
C1387      C1390   1.403       .  A
C1387      C1394   1.407       .  A
C1390      C1391   1.393       .  A
C1390      F1395   1.358       .  S
C1391      C1392   1.410       .  A
C1391      F1397   1.358       .  S
C1392      C1393   1.408       .  A
C1393      C1394   1.403       .  A
C1393      F1396   1.357       .  S
C1394      F1398   1.358       .  S
