geometry optimzed in LAMMPS
_audit_creation_date              2020-11-30 
_audit_creation_method            'lammps2cif' 
_symmetry_space_group_name_H-M    'P1' 
_symmetry_Int_Tables_number       1 
_symmetry_cell_setting            triclinic 
loop_ 
_symmetry_equiv_pos_as_xyz 
  x,y,z 
_cell_length_a                    32.55980209 
_cell_length_b                    29.58365226298539 
_cell_length_c                    29.574079749505717 
_cell_angle_alpha                 89.95946462510935 
_cell_angle_beta                  89.77867042560732 
_cell_angle_gamma                 89.83052688111678 
loop_ 
_atom_site_label 
_atom_site_type_symbol 
_atom_site_fract_x 
_atom_site_fract_y 
_atom_site_fract_z 
_atom_site_charge 
C1          C  0.76672172  0.29245694  0.43481823     0.03900
C2          C  0.74303849  0.29274834  0.39527750    -0.12200
C3          C  0.72964621  0.00042025  0.37626437     0.01400
C4          C  0.74043891  0.04143337  0.39698720    -0.10800
C5          C  0.76482460  0.04169387  0.43603466     0.03900
C6          C  0.77775006  0.33373618  0.45468499    -0.10200
H7          H  0.73446047  0.26103286  0.37968037     0.09500
H8          H  0.73030733  0.07313950  0.38237701     0.07000
H9          H  0.79610689  0.33371645  0.48515979     0.06900
O10         O  0.69275180  0.04453761  0.19337100    -0.57000
C11         C  0.67829128  0.25117495  0.20638763     0.75600
O12         O  0.70206367  0.96587382  0.30978884    -0.58200
C13         C  0.68020846  0.08255470  0.20762878     0.75600
C14         C  0.56801908  0.99852681  0.25544957     0.78000
Cd15       Cd  0.65668794  0.00011462  0.25231711     1.37500
O16         O  0.69140654  0.28907861  0.19253087    -0.57000
O17         O  0.58790221  0.00492734  0.21924985    -0.55800
C18         C  0.70458771  0.00032760  0.33475848     0.77900
O19         O  0.58916692  0.99274279  0.29080530    -0.58200
O20         O  0.65484730  0.25188534  0.24062501    -0.56700
O21         O  0.65707476  0.08194246  0.24206113    -0.56700
O22         O  0.68456263  0.03465374  0.32206728    -0.55800
C23         C  0.69023592  0.20812201  0.18459035     0.03900
C24         C  0.67894038  0.16683948  0.20441890    -0.12200
C25         C  0.69186141  0.12556299  0.18566587     0.01400
C26         C  0.71618106  0.12582838  0.14640425    -0.10800
C27         C  0.72721834  0.16683640  0.12576608     0.03900
C28         C  0.71405083  0.20784330  0.14496648    -0.10200
H29         H  0.66058048  0.16685395  0.23504652     0.09500
H30         H  0.72626295  0.09412588  0.13169855     0.07000
H31         H  0.72287123  0.23956578  0.12942995     0.06900
O32         O  0.76404692  0.12274401  0.44397066    -0.57000
C33         C  0.77894766  0.24940830  0.45645416     0.75600
O34         O  0.75580248  0.20161438  0.05973919    -0.58200
C35         C  0.77684575  0.08468046  0.45774302     0.75600
C36         C  0.88960811  0.16950845  0.00625870     0.78000
Cd37       Cd  0.80095742  0.16711150  0.00215948     1.37500
O38         O  0.76782996  0.21129614  0.44126983    -0.57000
O39         O  0.87024028  0.16474867  0.46963548    -0.55800
C40         C  0.75251580  0.16690465  0.08430219     0.77900
O41         O  0.86796088  0.17315775  0.04168814    -0.58200
O42         O  0.80065797  0.24889545  0.99186407    -0.56700
O43         O  0.80066200  0.08522925  0.99141498    -0.56700
O44         O  0.77203083  0.13230476  0.07128281    -0.55800
C45         C  0.26450323  0.12570513  0.18841197     0.03900
C46         C  0.23996896  0.12617280  0.14947172    -0.12200
C47         C  0.22833836  0.16732592  0.12933750     0.01400
C48         C  0.24118281  0.20825012  0.14876941    -0.10800
C49         C  0.26531836  0.20832376  0.18797186     0.03900
C50         C  0.27700527  0.16692597  0.20734918    -0.10200
H51         H  0.23024339  0.09452121  0.13459723     0.09500
H52         H  0.23214390  0.24006862  0.13355025     0.07000
H53         H  0.29563143  0.16679713  0.23762338     0.06900
O54         O  0.19115489  0.21222575  0.44524428    -0.57000
C55         C  0.18074688  0.08572420  0.46040513     0.75600
O56         O  0.19815632  0.20308089  0.06470099    -0.59000
C57         C  0.17947581  0.25042540  0.45997208     0.75600
C58         C  0.06709961  0.17033026  0.00759962     0.78000
Cd59       Cd  0.15594176  0.16819411  0.00496348     1.37500
O60         O  0.19319031  0.12379373  0.44635650    -0.57000
O61         O  0.08727638  0.16774276  0.47111118    -0.55800
C62         C  0.20323634  0.16764230  0.08782915     0.77900
O63         O  0.08798627  0.17208334  0.04353142    -0.58200
O64         O  0.15688451  0.08633584  0.99424146    -0.56700
O65         O  0.15660034  0.25007856  0.99468162    -0.56700
O66         O  0.18584077  0.13250544  0.07320602    -0.55800
C67         C  0.19328668  0.04262866  0.43894684     0.03900
C68         C  0.18058322  0.00142907  0.45792098    -0.12200
C69         C  0.19217037  0.29336469  0.43845559     0.01400
C70         C  0.21642665  0.29341730  0.39912560    -0.10800
C71         C  0.22944707  0.00098755  0.37960747     0.03900
C72         C  0.21793859  0.04214702  0.39987980    -0.10200
H73         H  0.16186209  0.00157341  0.48828313     0.09500
H74         H  0.22536587  0.26158729  0.38382886     0.07000
H75         H  0.22778504  0.07379915  0.38497783     0.06900
O76         O  0.26554320  0.28944007  0.19531563    -0.57000
C77         C  0.27699429  0.08259484  0.20984250     0.75600
O78         O  0.26060183  0.29825042  0.31542246    -0.58200
C79         C  0.27785064  0.25126434  0.20942764     0.75600
C80         C  0.39050317  0.33164209  0.25624046     0.78000
Cd81       Cd  0.30161499  0.33338742  0.25426751     1.37500
O82         O  0.26539525  0.04447491  0.19519163    -0.57000
O83         O  0.37046838  0.33524872  0.21991080    -0.55800
C84         C  0.25447633  0.33398260  0.33778919     0.77900
O85         O  0.36947099  0.32868639  0.29216185    -0.58200
O86         O  0.29992573  0.08201537  0.24426365    -0.56700
O87         O  0.30128634  0.25161766  0.24346403    -0.56700
O88         O  0.27071468  0.36940366  0.32208080    -0.55800
C89         C  0.95733223  0.16735432  0.46660071    -0.12600
C90         C  0.93498290  0.17055049  0.00717748     0.09600
C91         C  0.95640615  0.17436066  0.04816892    -0.12600
C92         C  0.99942587  0.17452850  0.04849215    -0.12600
C93         C  0.02169250  0.17098359  0.00782299     0.09600
C94         C  0.00017096  0.16760562  0.46691544    -0.12600
H95         H  0.94169820  0.16448594  0.43447283     0.13600
H96         H  0.93994203  0.17692960  0.07995474     0.13600
H97         H  0.01523712  0.17723874  0.08052169     0.13600
H98         H  0.01645882  0.16488867  0.43502613     0.13600
C99         C  0.50066996  0.00512700  0.21586628    -0.12600
C100        C  0.52262759  0.99799253  0.25604568     0.09600
C101        C  0.50080491  0.99058368  0.29644880    -0.12600
C102        C  0.45780546  0.99056166  0.29663800    -0.12600
C103        C  0.43590989  0.99783463  0.25640699     0.09600
C104        C  0.45780086  0.33832241  0.21603558    -0.12600
H105        H  0.51662960  0.34427284  0.18420223     0.13600
H106        H  0.51695016  0.98492632  0.32790710     0.13600
H107        H  0.44170894  0.98486601  0.32823532     0.13600
H108        H  0.44178249  0.34407741  0.18451109     0.13600
C109        C  0.76672145  0.29245683  0.93481784     0.03900
C110        C  0.74303845  0.29274816  0.89527713    -0.12200
C111        C  0.72964593  0.00042010  0.87626446     0.01400
C112        C  0.74043854  0.04143320  0.89698734    -0.10800
C113        C  0.76482442  0.04169376  0.93603471     0.03900
C114        C  0.77774976  0.33373617  0.95468460    -0.10200
H115        H  0.73446058  0.26103265  0.87967993     0.09500
H116        H  0.73030676  0.07313885  0.88237745     0.07000
H117        H  0.79610606  0.33371643  0.98515906     0.06900
O118        O  0.69275207  0.04453756  0.69337123    -0.57000
C119        C  0.67829125  0.25117492  0.70638751     0.75600
O120        O  0.70206340  0.96587369  0.80978901    -0.58200
C121        C  0.68020844  0.08255464  0.70762863     0.75600
C122        C  0.56801903  0.99852717  0.75544970     0.78000
Cd123      Cd  0.65668786  0.00011465  0.75231721     1.37500
O124        O  0.69140649  0.28907859  0.69253081    -0.57000
O125        O  0.58790219  0.00492754  0.71924996    -0.55800
C126        C  0.70458737  0.00032749  0.83475865     0.77900
O127        O  0.58916685  0.99274299  0.79080542    -0.58200
O128        O  0.65484690  0.25188534  0.74062454    -0.56700
O129        O  0.65707459  0.08194241  0.74206079    -0.56700
O130        O  0.68456236  0.03465365  0.82206744    -0.55800
C131        C  0.69023569  0.20812206  0.68459001     0.03900
C132        C  0.67894018  0.16683946  0.70441868    -0.12200
C133        C  0.69186140  0.12556294  0.68566575     0.01400
C134        C  0.71618105  0.12582832  0.64640414    -0.10800
C135        C  0.72721813  0.16683650  0.62576594     0.03900
C136        C  0.71405056  0.20784338  0.64496619    -0.10200
H137        H  0.66058083  0.16685398  0.73504640     0.09500
H138        H  0.72626293  0.09412618  0.63169836     0.07000
H139        H  0.72287080  0.23956584  0.62942944     0.06900
O140        O  0.76404622  0.12274397  0.94397123    -0.57000
C141        C  0.77894741  0.24940828  0.95645404     0.75600
O142        O  0.75580222  0.20161435  0.55973886    -0.58200
C143        C  0.77684566  0.08468048  0.95774293     0.75600
C144        C  0.88960828  0.16950847  0.50625873     0.78000
Cd145      Cd  0.80095761  0.16711148  0.50215952     1.37500
O146        O  0.76783000  0.21129606  0.94126959    -0.57000
O147        O  0.87024009  0.16474870  0.96963557    -0.55800
C148        C  0.75251577  0.16690475  0.58430214     0.77900
O149        O  0.86796110  0.17315765  0.54168835    -0.58200
O150        O  0.80065830  0.24889540  0.49186414    -0.56700
O151        O  0.80066173  0.08522913  0.49141543    -0.56700
O152        O  0.77203109  0.13230493  0.57128305    -0.55800
C153        C  0.26450306  0.12570531  0.68841210     0.03900
C154        C  0.23996884  0.12617298  0.64947193    -0.12200
C155        C  0.22833833  0.16732603  0.62933737     0.01400
C156        C  0.24118271  0.20825022  0.64876924    -0.10800
C157        C  0.26531831  0.20832400  0.68797167     0.03900
C158        C  0.27700506  0.16692619  0.70734920    -0.10200
H159        H  0.23024362  0.09452105  0.63459737     0.09500
H160        H  0.23214375  0.24006893  0.63354962     0.07000
H161        H  0.29563125  0.16679739  0.73762343     0.06900
O162        O  0.19115476  0.21222570  0.94524461    -0.57000
C163        C  0.18074649  0.08572430  0.96040509     0.75600
O164        O  0.19815641  0.20308082  0.56470083    -0.59000
C165        C  0.17947547  0.25042539  0.95997201     0.75600
C166        C  0.06709982  0.17033007  0.50759935     0.78000
Cd167      Cd  0.15594202  0.16819402  0.50496336     1.37500
O168        O  0.19319011  0.12379390  0.94635677    -0.57000
O169        O  0.08727612  0.16774236  0.97111151    -0.55800
C170        C  0.20323624  0.16764236  0.58782915     0.77900
O171        O  0.08798646  0.17208265  0.54353122    -0.58200
O172        O  0.15688534  0.08633571  0.49424191    -0.56700
O173        O  0.15660087  0.25007860  0.49468190    -0.56700
O174        O  0.18584082  0.13250553  0.57320591    -0.55800
C175        C  0.19328620  0.04262859  0.93894683     0.03900
C176        C  0.18058291  0.00142897  0.95792104    -0.12200
C177        C  0.19217020  0.29336461  0.93845549     0.01400
C178        C  0.21642661  0.29341705  0.89912561    -0.10800
C179        C  0.22944687  0.00098741  0.87960755     0.03900
C180        C  0.21793814  0.04214700  0.89987976    -0.10200
H181        H  0.16186165  0.00157324  0.98828326     0.09500
H182        H  0.22536602  0.26158665  0.88382899     0.07000
H183        H  0.22778488  0.07379906  0.88497818     0.06900
O184        O  0.26554307  0.28944024  0.69531574    -0.57000
C185        C  0.27699394  0.08259503  0.70984281     0.75600
O186        O  0.26060171  0.29825032  0.81542245    -0.58200
C187        C  0.27785068  0.25126450  0.70942759     0.75600
C188        C  0.39050313  0.33164201  0.75624058     0.78000
Cd189      Cd  0.30161498  0.33338746  0.75426766     1.37500
O190        O  0.26539490  0.04447506  0.69519188    -0.57000
O191        O  0.37046833  0.33524866  0.71991091    -0.55800
C192        C  0.25447650  0.33398239  0.83778946     0.77900
O193        O  0.36947095  0.32868632  0.79216196    -0.58200
O194        O  0.29992555  0.08201565  0.74426386    -0.56700
O195        O  0.30128657  0.25161776  0.74346387    -0.56700
O196        O  0.27071485  0.36940344  0.82208114    -0.55800
C197        C  0.95733215  0.16735429  0.96660097    -0.12600
C198        C  0.93498312  0.17055045  0.50717719     0.09600
C199        C  0.95640652  0.17436038  0.54816873    -0.12600
C200        C  0.99942617  0.17452824  0.54849207    -0.12600
C201        C  0.02169264  0.17098343  0.50782283     0.09600
C202        C  0.00017099  0.16760556  0.96691574    -0.12600
H203        H  0.94169850  0.16448567  0.93447360     0.13600
H204        H  0.93994237  0.17692962  0.57995454     0.13600
H205        H  0.01523746  0.17723799  0.58052170     0.13600
H206        H  0.01645887  0.16488830  0.93502638     0.13600
C207        C  0.50066987  0.00512730  0.71586633    -0.12600
C208        C  0.52262752  0.99799289  0.75604578     0.09600
C209        C  0.50080485  0.99058442  0.79644902    -0.12600
C210        C  0.45780541  0.99056228  0.79663824    -0.12600
C211        C  0.43590987  0.99783518  0.75640712     0.09600
C212        C  0.45780076  0.33832238  0.71603566    -0.12600
H213        H  0.51662948  0.34427267  0.68420229     0.13600
H214        H  0.51695013  0.98492727  0.82790737     0.13600
H215        H  0.44170889  0.98486724  0.82823571     0.13600
H216        H  0.44178247  0.34407690  0.68451121     0.13600
C217        C  0.76672150  0.62579019  0.43481800     0.03900
C218        C  0.74303842  0.62608160  0.39527726    -0.12200
C219        C  0.72964609  0.33375367  0.37626480     0.01400
C220        C  0.74043894  0.37476682  0.39698743    -0.10800
C221        C  0.76482482  0.37502720  0.43603491     0.03900
C222        C  0.77774982  0.66706940  0.45468488    -0.10200
H223        H  0.73446092  0.59436616  0.37967997     0.09500
H224        H  0.73030728  0.40647233  0.38237769     0.07000
H225        H  0.79610649  0.66704955  0.48515937     0.06900
O226        O  0.69275215  0.37787083  0.19337134    -0.57000
C227        C  0.67829133  0.58450819  0.20638766     0.75600
O228        O  0.70206257  0.29920692  0.30978976    -0.58200
C229        C  0.68020852  0.41588787  0.20762887     0.75600
C230        C  0.56801912  0.33186019  0.25544968     0.78000
Cd231      Cd  0.65668798  0.33344784  0.25231722     1.37500
O232        O  0.69140656  0.62241186  0.19253078    -0.57000
O233        O  0.58790227  0.33826055  0.21924993    -0.55800
C234        C  0.70458756  0.33366107  0.33475874     0.77900
O235        O  0.58916696  0.32607611  0.29080539    -0.58200
O236        O  0.65484722  0.58521856  0.24062499    -0.56700
O237        O  0.65707460  0.41527560  0.24206099    -0.56700
O238        O  0.68456327  0.36798747  0.32206682    -0.55800
C239        C  0.69023578  0.54145511  0.18459053     0.03900
C240        C  0.67894029  0.50017265  0.20441908    -0.12200
C241        C  0.69186145  0.45889613  0.18566618     0.01400
C242        C  0.71618103  0.45916149  0.14640440    -0.10800
C243        C  0.72721820  0.50016946  0.12576613     0.03900
C244        C  0.71405062  0.54117634  0.14496655    -0.10200
H245        H  0.66058067  0.50018718  0.23504745     0.09500
H246        H  0.72626288  0.42745893  0.13169849     0.07000
H247        H  0.72287039  0.57289874  0.12942974     0.06900
O248        O  0.76404690  0.45607731  0.44397073    -0.57000
C249        C  0.77894742  0.58274149  0.45645404     0.75600
O250        O  0.75580320  0.53494780  0.05973964    -0.58200
C251        C  0.77684593  0.41801385  0.45774296     0.75600
C252        C  0.88960820  0.50284201  0.00625868     0.78000
Cd253      Cd  0.80095747  0.50044479  0.00215943     1.37500
O254        O  0.76782952  0.54462932  0.44126996    -0.57000
O255        O  0.87024021  0.49808182  0.46963550    -0.55800
C256        C  0.75251590  0.50023789  0.08430228     0.77900
O257        O  0.86796095  0.50649083  0.04168818    -0.58200
O258        O  0.80065809  0.58222875  0.99186399    -0.56700
O259        O  0.80066253  0.41856262  0.99141441    -0.56700
O260        O  0.77203010  0.46563767  0.07128230    -0.55800
C261        C  0.26450323  0.45903846  0.18841194     0.03900
C262        C  0.23996892  0.45950613  0.14947186    -0.12200
C263        C  0.22833845  0.50065915  0.12933738     0.01400
C264        C  0.24118284  0.54158334  0.14876929    -0.10800
C265        C  0.26531831  0.54165714  0.18797189     0.03900
C266        C  0.27700515  0.50025929  0.20734926    -0.10200
H267        H  0.23024382  0.42785425  0.13459724     0.09500
H268        H  0.23214353  0.57340186  0.13355005     0.07000
H269        H  0.29563143  0.50013033  0.23762341     0.06900
O270        O  0.19115504  0.54555893  0.44524466    -0.57000
C271        C  0.18074699  0.41905758  0.46040521     0.75600
O272        O  0.19815677  0.53641394  0.06470064    -0.59000
C273        C  0.17947567  0.58375864  0.45997215     0.75600
C274        C  0.06709967  0.50366362  0.00759966     0.78000
Cd275      Cd  0.15594189  0.50152734  0.00496342     1.37500
O276        O  0.19319058  0.45712725  0.44635690    -0.57000
O277        O  0.08727648  0.50107595  0.47111130    -0.55800
C278        C  0.20323632  0.50097554  0.08782917     0.77900
O279        O  0.08798629  0.50541668  0.04353143    -0.58200
O280        O  0.15688484  0.41966893  0.99424154    -0.56700
O281        O  0.15660043  0.58341193  0.99468167    -0.56700
O282        O  0.18584058  0.46583877  0.07320618    -0.55800
C283        C  0.19328691  0.37596210  0.43894669     0.03900
C284        C  0.18058340  0.33476232  0.45792095    -0.12200
C285        C  0.19217032  0.62669786  0.43845565     0.01400
C286        C  0.21642669  0.62675036  0.39912577    -0.10800
C287        C  0.22944724  0.33432117  0.37960733     0.03900
C288        C  0.21793871  0.37548054  0.39987961    -0.10200
H289        H  0.16186289  0.33490650  0.48828325     0.09500
H290        H  0.22536611  0.59492002  0.38382914     0.07000
H291        H  0.22778543  0.40713313  0.38497749     0.06900
O292        O  0.26554302  0.62277351  0.19531571    -0.57000
C293        C  0.27699413  0.41592814  0.20984253     0.75600
O294        O  0.26060222  0.63158369  0.31542268    -0.58200
C295        C  0.27785073  0.58459777  0.20942766     0.75600
C296        C  0.39050324  0.66497517  0.25624044     0.78000
Cd297      Cd  0.30161503  0.66672073  0.25426754     1.37500
O298        O  0.26539520  0.37780815  0.19519152    -0.57000
O299        O  0.37046842  0.66858159  0.21991076    -0.55800
C300        C  0.25447639  0.66731581  0.33778933     0.77900
O301        O  0.36947108  0.66201991  0.29216190    -0.58200
O302        O  0.29992552  0.41534877  0.24426376    -0.56700
O303        O  0.30128642  0.58495098  0.24346417    -0.56700
O304        O  0.27071439  0.70273692  0.32208071    -0.55800
C305        C  0.95733229  0.50068814  0.46660104    -0.12600
C306        C  0.93498297  0.50388430  0.00717771     0.09600
C307        C  0.95640616  0.50769441  0.04816898    -0.12600
C308        C  0.99942584  0.50786240  0.04849237    -0.12600
C309        C  0.02169257  0.50431731  0.00782301     0.09600
C310        C  0.00017108  0.50093954  0.46691562    -0.12600
H311        H  0.94169844  0.49781982  0.43447361     0.13600
H312        H  0.93994161  0.51026339  0.07995536     0.13600
H313        H  0.01523701  0.51057266  0.08052163     0.13600
H314        H  0.01645886  0.49822249  0.43502618     0.13600
C315        C  0.50067009  0.33846069  0.21586642    -0.12600
C316        C  0.52262757  0.33132598  0.25604584     0.09600
C317        C  0.50080485  0.32391725  0.29644895    -0.12600
C318        C  0.45780532  0.32389527  0.29663802    -0.12600
C319        C  0.43590989  0.33116835  0.25640701     0.09600
C320        C  0.45780088  0.67165521  0.21603527    -0.12600
H321        H  0.51662966  0.67760569  0.18420149     0.13600
H322        H  0.51694981  0.31826019  0.32790706     0.13600
H323        H  0.44170873  0.31819946  0.32823523     0.13600
H324        H  0.44178236  0.67740980  0.18451082     0.13600
C325        C  0.76672154  0.62579009  0.93481785     0.03900
C326        C  0.74303853  0.62608153  0.89527712    -0.12200
C327        C  0.72964590  0.33375352  0.87626453     0.01400
C328        C  0.74043859  0.37476675  0.89698715    -0.10800
C329        C  0.76482443  0.37502728  0.93603452     0.03900
C330        C  0.77774979  0.66706934  0.95468469    -0.10200
H331        H  0.73446054  0.59436578  0.87968007     0.09500
H332        H  0.73030691  0.40647228  0.88237713     0.07000
H333        H  0.79610643  0.66704973  0.98515920     0.06900
O334        O  0.69275171  0.37787099  0.69337097    -0.57000
C335        C  0.67829132  0.58450828  0.70638777     0.75600
O336        O  0.70206352  0.29920703  0.80978885    -0.58200
C337        C  0.68020851  0.41588803  0.70762876     0.75600
C338        C  0.56801909  0.33186027  0.75544979     0.78000
Cd339      Cd  0.65668795  0.33344781  0.75231704     1.37500
O340        O  0.69140629  0.62241192  0.69253086    -0.57000
O341        O  0.58790218  0.33826068  0.71925002    -0.55800
C342        C  0.70458747  0.33366085  0.83475848     0.77900
O343        O  0.58916701  0.32607591  0.79080539    -0.58200
O344        O  0.65484724  0.58521876  0.74062504    -0.56700
O345        O  0.65707494  0.41527556  0.74206109    -0.56700
O346        O  0.68456230  0.36798692  0.82206725    -0.55800
C347        C  0.69023590  0.54145541  0.68459034     0.03900
C348        C  0.67894037  0.50017291  0.70441887    -0.12200
C349        C  0.69186149  0.45889632  0.68566591     0.01400
C350        C  0.71618108  0.45916156  0.64640427    -0.10800
C351        C  0.72721838  0.50016966  0.62576622     0.03900
C352        C  0.71405072  0.54117656  0.64496648    -0.10200
H353        H  0.66058054  0.50018746  0.73504646     0.09500
H354        H  0.72626308  0.42745911  0.63169853     0.07000
H355        H  0.72287122  0.57289905  0.62942990     0.06900
O356        O  0.76404603  0.45607736  0.94397118    -0.57000
C357        C  0.77894751  0.58274159  0.95645395     0.75600
O358        O  0.75580304  0.53494786  0.55973957    -0.58200
C359        C  0.77684563  0.41801389  0.95774280     0.75600
C360        C  0.88960824  0.50284210  0.50625868     0.78000
Cd361      Cd  0.80095755  0.50044480  0.50215952     1.37500
O362        O  0.76782992  0.54462942  0.94126949    -0.57000
O363        O  0.87024021  0.49808243  0.96963550    -0.55800
C364        C  0.75251588  0.50023798  0.58430235     0.77900
O365        O  0.86796105  0.50649139  0.54168824    -0.58200
O366        O  0.80065838  0.58222851  0.49186376    -0.56700
O367        O  0.80066194  0.41856256  0.49141534    -0.56700
O368        O  0.77203029  0.46563781  0.57128262    -0.55800
C369        C  0.26450323  0.45903860  0.68841212     0.03900
C370        C  0.23996893  0.45950626  0.64947194    -0.12200
C371        C  0.22833853  0.50065938  0.62933750     0.01400
C372        C  0.24118301  0.54158354  0.64876932    -0.10800
C373        C  0.26531848  0.54165726  0.68797185     0.03900
C374        C  0.27700514  0.50025943  0.70734944    -0.10200
H375        H  0.23024338  0.42785468  0.63459761     0.09500
H376        H  0.23214449  0.57340222  0.63354950     0.07000
H377        H  0.29563128  0.50013059  0.73762366     0.06900
O378        O  0.19115457  0.54555912  0.94524432    -0.57000
C379        C  0.18074672  0.41905751  0.96040510     0.75600
O380        O  0.19815732  0.53641384  0.56470046    -0.59000
C381        C  0.17947533  0.58375876  0.95997187     0.75600
C382        C  0.06709988  0.50366396  0.50759940     0.78000
Cd383      Cd  0.15594210  0.50152734  0.50496358     1.37500
O384        O  0.19319027  0.45712714  0.94635672    -0.57000
O385        O  0.08727623  0.50107565  0.97111156    -0.55800
C386        C  0.20323653  0.50097554  0.58782922     0.77900
O387        O  0.08798649  0.50541682  0.54353126    -0.58200
O388        O  0.15688517  0.41966892  0.49424174    -0.56700
O389        O  0.15660073  0.58341192  0.49468196    -0.56700
O390        O  0.18584019  0.46583891  0.57320671    -0.55800
C391        C  0.19328661  0.37596204  0.93894665     0.03900
C392        C  0.18058309  0.33476236  0.95792084    -0.12200
C393        C  0.19216988  0.62669797  0.93845540     0.01400
C394        C  0.21642631  0.62675057  0.89912550    -0.10800
C395        C  0.22944726  0.33432088  0.87960745     0.03900
C396        C  0.21793862  0.37548040  0.89987976    -0.10200
H397        H  0.16186218  0.33490666  0.98828285     0.09500
H398        H  0.22536566  0.59492024  0.88382875     0.07000
H399        H  0.22778519  0.40713296  0.88497767     0.06900
O400        O  0.26554322  0.62277352  0.69531574    -0.57000
C401        C  0.27699411  0.41592825  0.70984273     0.75600
O402        O  0.26060151  0.63158395  0.81542228    -0.58200
C403        C  0.27785069  0.58459779  0.70942773     0.75600
C404        C  0.39050318  0.66497535  0.75624059     0.78000
Cd405      Cd  0.30161503  0.66672088  0.75426765     1.37500
O406        O  0.26539519  0.37780829  0.69519171    -0.57000
O407        O  0.37046838  0.66858209  0.71991096    -0.55800
C408        C  0.25447621  0.66731601  0.83778924     0.77900
O409        O  0.36947102  0.66201947  0.79216197    -0.58200
O410        O  0.29992552  0.41534882  0.74426393    -0.56700
O411        O  0.30128635  0.58495112  0.74346415    -0.56700
O412        O  0.27071499  0.70273694  0.82208117    -0.55800
C413        C  0.95733235  0.50068801  0.96660114    -0.12600
C414        C  0.93498308  0.50388425  0.50717759     0.09600
C415        C  0.95640643  0.50769457  0.54816895    -0.12600
C416        C  0.99942609  0.50786256  0.54849212    -0.12600
C417        C  0.02169269  0.50431755  0.50782281     0.09600
C418        C  0.00017112  0.50093940  0.96691592    -0.12600
H419        H  0.94169870  0.49781979  0.93447383     0.13600
H420        H  0.93994218  0.51026314  0.57995524     0.13600
H421        H  0.01523746  0.51057291  0.58052153     0.13600
H422        H  0.01645915  0.49822251  0.93502630     0.13600
C423        C  0.50067000  0.33846062  0.71586659    -0.12600
C424        C  0.52262753  0.33132603  0.75604601     0.09600
C425        C  0.50080488  0.32391734  0.79644923    -0.12600
C426        C  0.45780533  0.32389535  0.79663832    -0.12600
C427        C  0.43590988  0.33116840  0.75640723     0.09600
C428        C  0.45780072  0.67165527  0.71603541    -0.12600
H429        H  0.51662946  0.67760617  0.68420197     0.13600
H430        H  0.51694988  0.31826064  0.82790735     0.13600
H431        H  0.44170880  0.31820027  0.82823571     0.13600
H432        H  0.44178229  0.67740938  0.68451085     0.13600
C433        C  0.76672160  0.95912338  0.43481788     0.03900
C434        C  0.74303861  0.95941487  0.39527716    -0.12200
C435        C  0.72964591  0.66708694  0.37626466     0.01400
C436        C  0.74043874  0.70810010  0.39698733    -0.10800
C437        C  0.76482454  0.70836054  0.43603486     0.03900
C438        C  0.77774982  0.00040268  0.45468473    -0.10200
H439        H  0.73446072  0.92769894  0.37967980     0.09500
H440        H  0.73030665  0.73980564  0.38237775     0.07000
H441        H  0.79610676  0.00038297  0.48515923     0.06900
O442        O  0.69275189  0.71120423  0.19337115    -0.57000
C443        C  0.67829122  0.91784158  0.20638766     0.75600
O444        O  0.70206304  0.63254015  0.30978935    -0.58200
C445        C  0.68020847  0.74922126  0.20762878     0.75600
C446        C  0.56801914  0.66519337  0.25544956     0.78000
Cd447      Cd  0.65668800  0.66678109  0.25231718     1.37500
O448        O  0.69140618  0.95574523  0.19253063    -0.57000
O449        O  0.58790230  0.67159373  0.21924985    -0.55800
C450        C  0.70458749  0.66699423  0.33475863     0.77900
O451        O  0.58916700  0.65940931  0.29080527    -0.58200
O452        O  0.65484727  0.91855204  0.24062508    -0.56700
O453        O  0.65707474  0.74860886  0.24206101    -0.56700
O454        O  0.68456285  0.70132060  0.32206712    -0.55800
C455        C  0.69023588  0.87478867  0.18459018     0.03900
C456        C  0.67894042  0.83350613  0.20441880    -0.12200
C457        C  0.69186159  0.79222943  0.18566575     0.01400
C458        C  0.71618117  0.79249481  0.14640409    -0.10800
C459        C  0.72721829  0.83350291  0.12576595     0.03900
C460        C  0.71405066  0.87450987  0.14496631    -0.10200
H461        H  0.66058104  0.83352073  0.23504642     0.09500
H462        H  0.72626353  0.76079212  0.13169816     0.07000
H463        H  0.72287092  0.90623235  0.12942960     0.06900
O464        O  0.76404685  0.78941070  0.44397065    -0.57000
C465        C  0.77894744  0.91607485  0.45645410     0.75600
O466        O  0.75580250  0.86828118  0.05973922    -0.58200
C467        C  0.77684582  0.75134720  0.45774300     0.75600
C468        C  0.88960813  0.83617535  0.00625893     0.78000
Cd469      Cd  0.80095749  0.83377808  0.00215966     1.37500
O470        O  0.76782982  0.87796266  0.44126975    -0.57000
O471        O  0.87024011  0.83141544  0.46963572    -0.55800
C472        C  0.75251580  0.83357141  0.08430222     0.77900
O473        O  0.86796097  0.83982461  0.04168847    -0.58200
O474        O  0.80065809  0.91556199  0.99186406    -0.56700
O475        O  0.80066196  0.75189578  0.99141509    -0.56700
O476        O  0.77203065  0.79897140  0.07128283    -0.55800
C477        C  0.26450324  0.79237179  0.18841184     0.03900
C478        C  0.23996885  0.79283946  0.14947177    -0.12200
C479        C  0.22833822  0.83399244  0.12933736     0.01400
C480        C  0.24118270  0.87491659  0.14876934    -0.10800
C481        C  0.26531824  0.87499037  0.18797183     0.03900
C482        C  0.27700520  0.83359262  0.20734918    -0.10200
H483        H  0.23024383  0.76118742  0.13459712     0.09500
H484        H  0.23214321  0.90673522  0.13355040     0.07000
H485        H  0.29563154  0.83346378  0.23762324     0.06900
O486        O  0.19115477  0.87889229  0.44524442    -0.57000
C487        C  0.18074670  0.75239073  0.46040507     0.75600
O488        O  0.19815612  0.86974734  0.06470098    -0.59000
C489        C  0.17947541  0.91709195  0.45997196     0.75600
C490        C  0.06709957  0.83699696  0.00759958     0.78000
Cd491      Cd  0.15594172  0.83486063  0.00496359     1.37500
O492        O  0.19319044  0.79046036  0.44635682    -0.57000
O493        O  0.08727616  0.83440921  0.47111135    -0.55800
C494        C  0.20323617  0.83430883  0.08782916     0.77900
O495        O  0.08798625  0.83874975  0.04353140    -0.58200
O496        O  0.15688498  0.75300229  0.99424183    -0.56700
O497        O  0.15660042  0.91674516  0.99468207    -0.56700
O498        O  0.18584071  0.79917196  0.07320607    -0.55800
C499        C  0.19328665  0.70929518  0.43894666     0.03900
C500        C  0.18058330  0.66809561  0.45792089    -0.12200
C501        C  0.19217006  0.96003130  0.43845561     0.01400
C502        C  0.21642648  0.96008378  0.39912562    -0.10800
C503        C  0.22944712  0.66765408  0.37960742     0.03900
C504        C  0.21793849  0.70881357  0.39987966    -0.10200
H505        H  0.16186266  0.66823994  0.48828313     0.09500
H506        H  0.22536570  0.92825375  0.38382883     0.07000
H507        H  0.22778508  0.74046577  0.38497787     0.06900
O508        O  0.26554305  0.95610670  0.19531575    -0.57000
C509        C  0.27699415  0.74926146  0.20984251     0.75600
O510        O  0.26060157  0.96491702  0.31542234    -0.58200
C511        C  0.27785068  0.91793097  0.20942755     0.75600
C512        C  0.39050307  0.99830848  0.25624045     0.78000
Cd513      Cd  0.30161493  0.00005403  0.25426753     1.37500
O514        O  0.26539543  0.71114146  0.19519141    -0.57000
O515        O  0.37046824  0.00191518  0.21991079    -0.55800
C516        C  0.25447636  0.00064915  0.33778933     0.77900
O517        O  0.36947090  0.99535276  0.29216187    -0.58200
O518        O  0.29992538  0.74868203  0.24426384    -0.56700
O519        O  0.30128635  0.91828435  0.24346394    -0.56700
O520        O  0.27071486  0.03607021  0.32208106    -0.55800
C521        C  0.95733210  0.83402150  0.46660090    -0.12600
C522        C  0.93498286  0.83721752  0.00717764     0.09600
C523        C  0.95640626  0.84102760  0.04816922    -0.12600
C524        C  0.99942593  0.84119555  0.04849250    -0.12600
C525        C  0.02169240  0.83765052  0.00782326     0.09600
C526        C  0.00017084  0.83427282  0.46691554    -0.12600
H527        H  0.94169810  0.83115310  0.43447295     0.13600
H528        H  0.93994205  0.84359653  0.07995542     0.13600
H529        H  0.01523739  0.84390627  0.08052197     0.13600
H530        H  0.01645876  0.83155666  0.43502625     0.13600
C531        C  0.50067006  0.67179358  0.21586613    -0.12600
C532        C  0.52262763  0.66465917  0.25604562     0.09600
C533        C  0.50080503  0.65725072  0.29644886    -0.12600
C534        C  0.45780551  0.65722862  0.29663803    -0.12600
C535        C  0.43591000  0.66450159  0.25640694     0.09600
C536        C  0.45780077  0.00498873  0.21603543    -0.12600
H537        H  0.51662952  0.01093973  0.18420167     0.13600
H538        H  0.51695039  0.65159437  0.32790717     0.13600
H539        H  0.44170893  0.65153350  0.32823537     0.13600
H540        H  0.44178225  0.01074304  0.18451104     0.13600
C541        C  0.76672159  0.95912342  0.93481779     0.03900
C542        C  0.74303844  0.95941488  0.89527712    -0.12200
C543        C  0.72964600  0.66708686  0.87626445     0.01400
C544        C  0.74043866  0.70809998  0.89698719    -0.10800
C545        C  0.76482440  0.70836044  0.93603469     0.03900
C546        C  0.77774984  0.00040275  0.95468467    -0.10200
H547        H  0.73446059  0.92769902  0.87967975     0.09500
H548        H  0.73030695  0.73980561  0.88237723     0.07000
H549        H  0.79610668  0.00038320  0.98515905     0.06900
O550        O  0.69275172  0.71120454  0.69337122    -0.57000
C551        C  0.67829098  0.91784179  0.70638751     0.75600
O552        O  0.70206368  0.63254048  0.80978885    -0.58200
C553        C  0.68020833  0.74922154  0.70762877     0.75600
C554        C  0.56801908  0.66519362  0.75544968     0.78000
Cd555      Cd  0.65668797  0.66678130  0.75231716     1.37500
O556        O  0.69140620  0.95574538  0.69253068    -0.57000
O557        O  0.58790223  0.67159360  0.71924994    -0.55800
C558        C  0.70458761  0.66699429  0.83475847     0.77900
O559        O  0.58916702  0.65940985  0.79080535    -0.58200
O560        O  0.65484693  0.91855220  0.74062485    -0.56700
O561        O  0.65707480  0.74860902  0.74206110    -0.56700
O562        O  0.68456235  0.70132036  0.82206736    -0.55800
C563        C  0.69023551  0.87478893  0.68459026     0.03900
C564        C  0.67894004  0.83350647  0.70441889    -0.12200
C565        C  0.69186129  0.79222994  0.68566611     0.01400
C566        C  0.71618090  0.79249526  0.64640435    -0.10800
C567        C  0.72721805  0.83350326  0.62576612     0.03900
C568        C  0.71405036  0.87451006  0.64496629    -0.10200
H569        H  0.66058031  0.83352102  0.73504705     0.09500
H570        H  0.72626358  0.76079304  0.63169910     0.07000
H571        H  0.72287007  0.90623246  0.62942896     0.06900
O572        O  0.76404636  0.78941071  0.94397116    -0.57000
C573        C  0.77894747  0.91607489  0.95645413     0.75600
O574        O  0.75580254  0.86828119  0.55973917    -0.58200
C575        C  0.77684564  0.75134714  0.95774297     0.75600
C576        C  0.88960817  0.83617527  0.50625883     0.78000
Cd577      Cd  0.80095749  0.83377809  0.50215955     1.37500
O578        O  0.76783003  0.87796264  0.94126987    -0.57000
O579        O  0.87024014  0.83141520  0.96963574    -0.55800
C580        C  0.75251568  0.83357148  0.58430226     0.77900
O581        O  0.86796100  0.83982433  0.54168835    -0.58200
O582        O  0.80065815  0.91556201  0.49186401    -0.56700
O583        O  0.80066175  0.75189583  0.49141550    -0.56700
O584        O  0.77203044  0.79897141  0.57128284    -0.55800
C585        C  0.26450329  0.79237183  0.68841201     0.03900
C586        C  0.23996895  0.79283946  0.64947185    -0.12200
C587        C  0.22833837  0.83399252  0.62933747     0.01400
C588        C  0.24118274  0.87491687  0.64876934    -0.10800
C589        C  0.26531824  0.87499049  0.68797190     0.03900
C590        C  0.27700519  0.83359272  0.70734926    -0.10200
H591        H  0.23024346  0.76118750  0.63459731     0.09500
H592        H  0.23214382  0.90673536  0.63355018     0.07000
H593        H  0.29563143  0.83346390  0.73762348     0.06900
O594        O  0.19115472  0.87889240  0.94524474    -0.57000
C595        C  0.18074651  0.75239090  0.96040509     0.75600
O596        O  0.19815647  0.86974746  0.56470099    -0.59000
C597        C  0.17947538  0.91709202  0.95997229     0.75600
C598        C  0.06709959  0.83699684  0.50759945     0.78000
Cd599      Cd  0.15594190  0.83486058  0.50496350     1.37500
O600        O  0.19318998  0.79046056  0.94635678    -0.57000
O601        O  0.08727607  0.83440907  0.97111143    -0.55800
C602        C  0.20323645  0.83430890  0.58782916     0.77900
O603        O  0.08798625  0.83874972  0.54353128    -0.58200
O604        O  0.15688481  0.75300211  0.49424161    -0.56700
O605        O  0.15660044  0.91674512  0.49468176    -0.56700
O606        O  0.18584079  0.79917204  0.57320617    -0.55800
C607        C  0.19328652  0.70929537  0.93894673     0.03900
C608        C  0.18058298  0.66809561  0.95792083    -0.12200
C609        C  0.19216998  0.96003121  0.93845586     0.01400
C610        C  0.21642634  0.96008367  0.89912588    -0.10800
C611        C  0.22944706  0.66765443  0.87960736     0.03900
C612        C  0.21793844  0.70881390  0.89987966    -0.10200
H613        H  0.16186174  0.66823976  0.98828298     0.09500
H614        H  0.22536578  0.92825322  0.88382932     0.07000
H615        H  0.22778515  0.74046645  0.88497775     0.06900
O616        O  0.26554301  0.95610686  0.69531573    -0.57000
C617        C  0.27699430  0.74926165  0.70984269     0.75600
O618        O  0.26060191  0.96491702  0.81542270    -0.58200
C619        C  0.27785052  0.91793114  0.70942771     0.75600
C620        C  0.39050309  0.99830895  0.75624051     0.78000
Cd621      Cd  0.30161481  0.00005426  0.75426772     1.37500
O622        O  0.26539533  0.71114173  0.69519179    -0.57000
O623        O  0.37046818  0.00191536  0.71991086    -0.55800
C624        C  0.25447622  0.00064919  0.83778945     0.77900
O625        O  0.36947096  0.99535328  0.79216193    -0.58200
O626        O  0.29992577  0.74868214  0.74426379    -0.56700
O627        O  0.30128616  0.91828454  0.74346418    -0.56700
O628        O  0.27071418  0.03607039  0.82208089    -0.55800
C629        C  0.95733206  0.83402117  0.96660124    -0.12600
C630        C  0.93498290  0.83721727  0.50717735     0.09600
C631        C  0.95640617  0.84102733  0.54816879    -0.12600
C632        C  0.99942582  0.84119521  0.54849202    -0.12600
C633        C  0.02169244  0.83765062  0.50782283     0.09600
C634        C  0.00017082  0.83427257  0.96691584    -0.12600
H635        H  0.94169818  0.83115297  0.93447316     0.13600
H636        H  0.93994190  0.84359568  0.57995478     0.13600
H637        H  0.01523706  0.84390478  0.58052155     0.13600
H638        H  0.01645856  0.83155570  0.93502694     0.13600
C639        C  0.50066994  0.67179365  0.71586627    -0.12600
C640        C  0.52262749  0.66465943  0.75604565     0.09600
C641        C  0.50080489  0.65725112  0.79644885    -0.12600
C642        C  0.45780538  0.65722897  0.79663809    -0.12600
C643        C  0.43590987  0.66450158  0.75640707     0.09600
C644        C  0.45780070  0.00498889  0.71603546    -0.12600
H645        H  0.51662943  0.01094005  0.68420166     0.13600
H646        H  0.51695001  0.65159409  0.82790660     0.13600
H647        H  0.44170903  0.65153362  0.82823562     0.13600
H648        H  0.44178209  0.01074312  0.68451106     0.13600
loop_ 
_geom_bond_atom_site_label_1 
_geom_bond_atom_site_label_2 
_geom_bond_distance 
_geom_bond_site_symmetry_2 
_ccdc_geom_bond_type 
C1            C2   1.403       .  A
C1            C6   1.404       .  A
C1           C33   1.479       .  S
C2          C219   1.406       .  A
C2            H7   1.084       .  S
C3            C4   1.406       .  A
C3          C434   1.406   1_545  A
C3           C18   1.477       .  S
C4            C5   1.404       .  A
C4            H8   1.084       .  S
C5          C438   1.404       .  A
C5           C35   1.479       .  S
C6          C221   1.404       .  A
C6            H9   1.083       .  S
O10          C13   1.267       .  A
O10         Cd15   2.477       .  S
C11          C23   1.478       .  S
C11          O20   1.266       .  A
C11          O16   1.268       .  A
O12          C18   1.262   1_565  A
O12         Cd15   2.471   1_565  S
C13          C25   1.478       .  S
C13          O21   1.264       .  A
C14         C100   1.478       .  S
C14          O19   1.265       .  A
C14          O17   1.263   1_565  A
Cd15         O22   2.479       .  S
Cd15         O21   2.440       .  S
Cd15         O19   2.482   1_545  S
Cd15         O17   2.451       .  S
Cd15        O452   2.439   1_545  S
Cd15        O448   2.471   1_545  S
O16        Cd231   2.471       .  S
C18          O22   1.263       .  A
O20        Cd231   2.439       .  S
C23          C24   1.404       .  A
C23          C28   1.403       .  A
C24          C25   1.404       .  A
C24          H29   1.083       .  S
C25          C26   1.403       .  A
C26          C27   1.405       .  A
C26          H30   1.084       .  S
C27          C28   1.405       .  A
C27          C40   1.475       .  S
C28          H31   1.084       .  S
O32          C35   1.267       .  A
O32        Cd145   2.481       .  S
C33          O38   1.268       .  A
C33         O150   1.266       .  A
O34          C40   1.262       .  A
O34         Cd37   2.465       .  S
C35         O151   1.265       .  A
C36          C90   1.478       .  S
C36          O41   1.265       .  A
C36         O147   1.264   1_554  A
Cd37         O44   2.473       .  S
Cd37         O43   2.443   1_554  S
Cd37         O42   2.438   1_554  S
Cd37         O41   2.486       .  S
Cd37        O140   2.481   1_554  S
Cd37        O146   2.473   1_554  S
Cd37        O147   2.450   1_554  S
O38        Cd145   2.473       .  S
O39         C144   1.264       .  A
O39        Cd145   2.450       .  S
C40          O44   1.263       .  A
O42         C141   1.266       .  A
O43         C143   1.265       .  A
C45          C46   1.404       .  A
C45          C50   1.404       .  A
C45          C77   1.480       .  S
C46          C47   1.406       .  A
C46          H51   1.084       .  S
C47          C48   1.406       .  A
C47          C62   1.477       .  S
C48          C49   1.403       .  A
C48          H52   1.084       .  S
C49          C50   1.404       .  A
C49          C79   1.480       .  S
C50          H53   1.083       .  S
O54          C57   1.268       .  A
O54        Cd167   2.474       .  S
C55          C67   1.480       .  S
C55          O60   1.267       .  A
C55         O172   1.265       .  A
O56          C62   1.262       .  A
O56         Cd59   2.471       .  S
C57          C69   1.480       .  S
C57         O173   1.266       .  A
C58          C93   1.479       .  S
C58          O63   1.265       .  A
C58         O169   1.263   1_554  A
Cd59         O66   2.478       .  S
Cd59         O65   2.441   1_554  S
Cd59         O64   2.443   1_554  S
Cd59         O63   2.488       .  S
Cd59        O162   2.474   1_554  S
Cd59        O168   2.486   1_554  S
Cd59        O169   2.453   1_554  S
O60        Cd167   2.486       .  S
O61         C166   1.263       .  A
O61        Cd167   2.453       .  S
C62          O66   1.263       .  A
O64         C163   1.265       .  A
O65         C165   1.266       .  A
C67          C68   1.404       .  A
C67          C72   1.404       .  A
C68         C501   1.404   1_545  A
C68          H73   1.083       .  S
C69          C70   1.403       .  A
C69         C284   1.404       .  A
C70         C287   1.406       .  A
C70          H74   1.084       .  S
C71          C72   1.407       .  A
C71         C502   1.406   1_545  A
C71         C516   1.478       .  S
C72          H75   1.083       .  S
O76          C79   1.268       .  A
O76         Cd81   2.477       .  S
C77          O86   1.265       .  A
C77          O82   1.268       .  A
O78          C84   1.262       .  A
O78         Cd81   2.474       .  S
C79          O87   1.266       .  A
C80         C319   1.478       .  S
C80          O85   1.265       .  A
C80          O83   1.263       .  A
Cd81         O88   2.480       .  S
Cd81         O87   2.440       .  S
Cd81         O85   2.485       .  S
Cd81         O83   2.459       .  S
Cd81        O302   2.443       .  S
Cd81        O298   2.485       .  S
O82        Cd513   2.485       .  S
C84         C287   1.478       .  S
C84          O88   1.263       .  A
O86        Cd513   2.443       .  S
C89          C94   1.395   1_655  A
C89         C198   1.404       .  A
C89          H95   1.083       .  S
C90          C91   1.406       .  A
C90         C197   1.404   1_554  A
C91          C92   1.401       .  A
C91          H96   1.083       .  S
C92          C93   1.406   1_655  A
C92          H97   1.083   1_655  S
C93         C202   1.404   1_554  A
C94         C201   1.404       .  A
C94          H98   1.083       .  S
C99         C100   1.405   1_545  A
C99         C536   1.396       .  A
C99         H537   1.083       .  S
C100        C101   1.405       .  A
C101        C102   1.400       .  A
C101        H106   1.083       .  S
C102        C103   1.406       .  A
C102        H107   1.083       .  S
C103        C536   1.404   1_565  A
C103        C512   1.478       .  S
C104        C315   1.396       .  A
C104        C319   1.404       .  A
C104        H108   1.083       .  S
H105        C315   1.083       .  S
C109        C110   1.403       .  A
C109        C114   1.404       .  A
C109        C141   1.479       .  S
C110        C327   1.406       .  A
C110        H115   1.084       .  S
C111        C542   1.406   1_545  A
C111        C112   1.406       .  A
C111        C126   1.477       .  S
C112        C113   1.404       .  A
C112        H116   1.084       .  S
C113        C546   1.404       .  A
C113        C143   1.479       .  S
C114        C329   1.404       .  A
C114        H117   1.083       .  S
O118        C121   1.267       .  A
O118       Cd123   2.477       .  S
C119        C131   1.478       .  S
C119        O128   1.266       .  A
C119        O124   1.268       .  A
O120        C126   1.262   1_565  A
O120       Cd123   2.471   1_565  S
C121        C133   1.478       .  S
C121        O129   1.264       .  A
C122        C208   1.478       .  S
C122        O127   1.265       .  A
C122        O125   1.263   1_565  A
Cd123       O130   2.479       .  S
Cd123       O129   2.440       .  S
Cd123       O560   2.439   1_545  S
Cd123       O556   2.471   1_545  S
Cd123       O127   2.482   1_545  S
Cd123       O125   2.451       .  S
O124       Cd339   2.471       .  S
C126        O130   1.263       .  A
O128       Cd339   2.439       .  S
C131        C132   1.404       .  A
C131        C136   1.403       .  A
C132        C133   1.404       .  A
C132        H137   1.083       .  S
C133        C134   1.403       .  A
C134        C135   1.405       .  A
C134        H138   1.084       .  S
C135        C136   1.405       .  A
C135        C148   1.475       .  S
C136        H139   1.084       .  S
O140        C143   1.267       .  A
C141        O146   1.268       .  A
O142        C148   1.262       .  A
O142       Cd145   2.465       .  S
C144        C198   1.478       .  S
C144        O149   1.265       .  A
Cd145       O152   2.473       .  S
Cd145       O151   2.443       .  S
Cd145       O150   2.438       .  S
Cd145       O149   2.486       .  S
C148        O152   1.263       .  A
C153        C154   1.404       .  A
C153        C158   1.404       .  A
C153        C185   1.480       .  S
C154        C155   1.406       .  A
C154        H159   1.084       .  S
C155        C156   1.406       .  A
C155        C170   1.477       .  S
C156        C157   1.403       .  A
C156        H160   1.084       .  S
C157        C158   1.404       .  A
C157        C187   1.480       .  S
C158        H161   1.083       .  S
O162        C165   1.268       .  A
C163        C175   1.480       .  S
C163        O168   1.267       .  A
O164        C170   1.262       .  A
O164       Cd167   2.471       .  S
C165        C177   1.480       .  S
C166        C201   1.479       .  S
C166        O171   1.265       .  A
Cd167       O174   2.478       .  S
Cd167       O173   2.441       .  S
Cd167       O172   2.443       .  S
Cd167       O171   2.488       .  S
C170        O174   1.263       .  A
C175        C176   1.404       .  A
C175        C180   1.404       .  A
C176        C609   1.404   1_545  A
C176        H181   1.083       .  S
C177        C392   1.404       .  A
C177        C178   1.403       .  A
C178        C395   1.406       .  A
C178        H182   1.084       .  S
C179        C610   1.406   1_545  A
C179        C180   1.407       .  A
C179        C624   1.478       .  S
C180        H183   1.083       .  S
O184        C187   1.268       .  A
O184       Cd189   2.477       .  S
C185        O194   1.265       .  A
C185        O190   1.268       .  A
O186        C192   1.262       .  A
O186       Cd189   2.474       .  S
C187        O195   1.266       .  A
C188        C427   1.478       .  S
C188        O193   1.265       .  A
C188        O191   1.263       .  A
Cd189       O196   2.480       .  S
Cd189       O195   2.440       .  S
Cd189       O410   2.443       .  S
Cd189       O406   2.485       .  S
Cd189       O193   2.485       .  S
Cd189       O191   2.459       .  S
O190       Cd621   2.485       .  S
C192        C395   1.478       .  S
C192        O196   1.263       .  A
O194       Cd621   2.443       .  S
C197        C202   1.395   1_655  A
C197        H203   1.083       .  S
C198        C199   1.406       .  A
C199        C200   1.401       .  A
C199        H204   1.083       .  S
C200        C201   1.406   1_655  A
C200        H205   1.083   1_655  S
C202        H206   1.083       .  S
C207        C208   1.405   1_545  A
C207        C644   1.396       .  A
C207        H645   1.083       .  S
C208        C209   1.405       .  A
C209        C210   1.400       .  A
C209        H214   1.083       .  S
C210        C211   1.406       .  A
C210        H215   1.083       .  S
C211        C644   1.404   1_565  A
C211        C620   1.478       .  S
C212        C423   1.396       .  A
C212        C427   1.404       .  A
C212        H216   1.083       .  S
H213        C423   1.083       .  S
C217        C218   1.403       .  A
C217        C222   1.404       .  A
C217        C249   1.479       .  S
C218        C435   1.406       .  A
C218        H223   1.084       .  S
C219        C220   1.406       .  A
C219        C234   1.477       .  S
C220        C221   1.404       .  A
C220        H224   1.084       .  S
C221        C251   1.479       .  S
C222        C437   1.404       .  A
C222        H225   1.083       .  S
O226        C229   1.267       .  A
O226       Cd231   2.477       .  S
C227        C239   1.478       .  S
C227        O236   1.266       .  A
C227        O232   1.268       .  A
O228        C234   1.262       .  A
O228       Cd231   2.471       .  S
C229        C241   1.478       .  S
C229        O237   1.264       .  A
C230        C316   1.478       .  S
C230        O235   1.265       .  A
C230        O233   1.263       .  A
Cd231       O238   2.479       .  S
Cd231       O237   2.440       .  S
Cd231       O235   2.482       .  S
Cd231       O233   2.451       .  S
O232       Cd447   2.471       .  S
C234        O238   1.263       .  A
O236       Cd447   2.439       .  S
C239        C240   1.404       .  A
C239        C244   1.403       .  A
C240        C241   1.404       .  A
C240        H245   1.083       .  S
C241        C242   1.403       .  A
C242        C243   1.405       .  A
C242        H246   1.084       .  S
C243        C244   1.405       .  A
C243        C256   1.475       .  S
C244        H247   1.084       .  S
O248        C251   1.267       .  A
O248       Cd361   2.481       .  S
C249        O366   1.266       .  A
C249        O254   1.268       .  A
O250        C256   1.262       .  A
O250       Cd253   2.465       .  S
C251        O367   1.265       .  A
C252        C306   1.478       .  S
C252        O257   1.265       .  A
C252        O363   1.264   1_554  A
Cd253       O356   2.481   1_554  S
Cd253       O260   2.473       .  S
Cd253       O259   2.443   1_554  S
Cd253       O258   2.438   1_554  S
Cd253       O362   2.473   1_554  S
Cd253       O257   2.486       .  S
Cd253       O363   2.450   1_554  S
O254       Cd361   2.473       .  S
O255        C360   1.264       .  A
O255       Cd361   2.450       .  S
C256        O260   1.263       .  A
O258        C357   1.266       .  A
O259        C359   1.265       .  A
C261        C262   1.404       .  A
C261        C266   1.404       .  A
C261        C293   1.480       .  S
C262        C263   1.406       .  A
C262        H267   1.084       .  S
C263        C264   1.406       .  A
C263        C278   1.477       .  S
C264        C265   1.403       .  A
C264        H268   1.084       .  S
C265        C266   1.404       .  A
C265        C295   1.480       .  S
C266        H269   1.083       .  S
O270        C273   1.268       .  A
O270       Cd383   2.474       .  S
C271        C283   1.480       .  S
C271        O388   1.265       .  A
C271        O276   1.267       .  A
O272        C278   1.262       .  A
O272       Cd275   2.471       .  S
C273        C285   1.480       .  S
C273        O389   1.266       .  A
C274        C309   1.479       .  S
C274        O279   1.265       .  A
C274        O385   1.263   1_554  A
Cd275       O378   2.474   1_554  S
Cd275       O282   2.478       .  S
Cd275       O281   2.441   1_554  S
Cd275       O280   2.443   1_554  S
Cd275       O384   2.486   1_554  S
Cd275       O279   2.488       .  S
Cd275       O385   2.453   1_554  S
O276       Cd383   2.486       .  S
O277        C382   1.263       .  A
O277       Cd383   2.453       .  S
C278        O282   1.263       .  A
O280        C379   1.265       .  A
O281        C381   1.266       .  A
C283        C284   1.404       .  A
C283        C288   1.404       .  A
C284        H289   1.083       .  S
C285        C500   1.404       .  A
C285        C286   1.403       .  A
C286        C503   1.406       .  A
C286        H290   1.084       .  S
C287        C288   1.407       .  A
C288        H291   1.083       .  S
O292        C295   1.268       .  A
O292       Cd297   2.477       .  S
C293        O302   1.265       .  A
C293        O298   1.268       .  A
O294        C300   1.262       .  A
O294       Cd297   2.474       .  S
C295        O303   1.266       .  A
C296        C535   1.478       .  S
C296        O301   1.265       .  A
C296        O299   1.263       .  A
Cd297       O304   2.480       .  S
Cd297       O303   2.440       .  S
Cd297       O518   2.443       .  S
Cd297       O514   2.485       .  S
Cd297       O301   2.485       .  S
Cd297       O299   2.459       .  S
C300        C503   1.478       .  S
C300        O304   1.263       .  A
C305        C414   1.404       .  A
C305        C310   1.395   1_655  A
C305        H311   1.083       .  S
C306        C413   1.404   1_554  A
C306        C307   1.406       .  A
C307        C308   1.401       .  A
C307        H312   1.083       .  S
C308        C309   1.406   1_655  A
C308        H313   1.083   1_655  S
C309        C418   1.404   1_554  A
C310        C417   1.404       .  A
C310        H314   1.083       .  S
C315        C316   1.405       .  A
C316        C317   1.405       .  A
C317        C318   1.400       .  A
C317        H322   1.083       .  S
C318        C319   1.406       .  A
C318        H323   1.083       .  S
C320        C531   1.396       .  A
C320        C535   1.404       .  A
C320        H324   1.083       .  S
H321        C531   1.083       .  S
C325        C326   1.403       .  A
C325        C330   1.404       .  A
C325        C357   1.479       .  S
C326        C543   1.406       .  A
C326        H331   1.084       .  S
C327        C328   1.406       .  A
C327        C342   1.477       .  S
C328        C329   1.404       .  A
C328        H332   1.084       .  S
C329        C359   1.479       .  S
C330        C545   1.404       .  A
C330        H333   1.083       .  S
O334        C337   1.267       .  A
O334       Cd339   2.477       .  S
C335        C347   1.478       .  S
C335        O344   1.266       .  A
C335        O340   1.268       .  A
O336        C342   1.262       .  A
O336       Cd339   2.471       .  S
C337        C349   1.478       .  S
C337        O345   1.264       .  A
C338        C424   1.478       .  S
C338        O343   1.265       .  A
C338        O341   1.263       .  A
Cd339       O346   2.479       .  S
Cd339       O345   2.440       .  S
Cd339       O343   2.482       .  S
Cd339       O341   2.451       .  S
O340       Cd555   2.471       .  S
C342        O346   1.263       .  A
O344       Cd555   2.439       .  S
C347        C348   1.404       .  A
C347        C352   1.403       .  A
C348        C349   1.404       .  A
C348        H353   1.083       .  S
C349        C350   1.403       .  A
C350        C351   1.405       .  A
C350        H354   1.084       .  S
C351        C352   1.405       .  A
C351        C364   1.475       .  S
C352        H355   1.084       .  S
O356        C359   1.267       .  A
C357        O362   1.268       .  A
O358        C364   1.262       .  A
O358       Cd361   2.465       .  S
C360        C414   1.478       .  S
C360        O365   1.265       .  A
Cd361       O368   2.473       .  S
Cd361       O367   2.443       .  S
Cd361       O366   2.438       .  S
Cd361       O365   2.486       .  S
C364        O368   1.263       .  A
C369        C370   1.404       .  A
C369        C374   1.404       .  A
C369        C401   1.480       .  S
C370        C371   1.406       .  A
C370        H375   1.084       .  S
C371        C372   1.406       .  A
C371        C386   1.477       .  S
C372        C373   1.403       .  A
C372        H376   1.084       .  S
C373        C374   1.404       .  A
C373        C403   1.480       .  S
C374        H377   1.083       .  S
O378        C381   1.268       .  A
C379        C391   1.480       .  S
C379        O384   1.267       .  A
O380        C386   1.262       .  A
O380       Cd383   2.471       .  S
C381        C393   1.480       .  S
C382        C417   1.479       .  S
C382        O387   1.265       .  A
Cd383       O390   2.478       .  S
Cd383       O389   2.441       .  S
Cd383       O388   2.443       .  S
Cd383       O387   2.488       .  S
C386        O390   1.263       .  A
C391        C392   1.404       .  A
C391        C396   1.404       .  A
C392        H397   1.083       .  S
C393        C608   1.404       .  A
C393        C394   1.403       .  A
C394        C611   1.406       .  A
C394        H398   1.084       .  S
C395        C396   1.407       .  A
C396        H399   1.083       .  S
O400        C403   1.268       .  A
O400       Cd405   2.477       .  S
C401        O410   1.265       .  A
C401        O406   1.268       .  A
O402        C408   1.262       .  A
O402       Cd405   2.474       .  S
C403        O411   1.266       .  A
C404        C643   1.478       .  S
C404        O409   1.265       .  A
C404        O407   1.263       .  A
Cd405       O412   2.480       .  S
Cd405       O411   2.440       .  S
Cd405       O626   2.443       .  S
Cd405       O622   2.485       .  S
Cd405       O409   2.485       .  S
Cd405       O407   2.459       .  S
C408        C611   1.478       .  S
C408        O412   1.263       .  A
C413        C418   1.395   1_655  A
C413        H419   1.083       .  S
C414        C415   1.406       .  A
C415        C416   1.401       .  A
C415        H420   1.083       .  S
C416        C417   1.406   1_655  A
C416        H421   1.083   1_655  S
C418        H422   1.083       .  S
C423        C424   1.405       .  A
C424        C425   1.405       .  A
C425        C426   1.400       .  A
C425        H430   1.083       .  S
C426        C427   1.406       .  A
C426        H431   1.083       .  S
C428        C639   1.396       .  A
C428        C643   1.404       .  A
C428        H432   1.083       .  S
H429        C639   1.083       .  S
C433        C434   1.403       .  A
C433        C438   1.404   1_565  A
C433        C465   1.479       .  S
C434        H439   1.084       .  S
C435        C436   1.406       .  A
C435        C450   1.477       .  S
C436        C437   1.404       .  A
C436        H440   1.084       .  S
C437        C467   1.479       .  S
C438        H441   1.083       .  S
O442        C445   1.267       .  A
O442       Cd447   2.477       .  S
C443        C455   1.478       .  S
C443        O452   1.266       .  A
C443        O448   1.268       .  A
O444        C450   1.262       .  A
O444       Cd447   2.471       .  S
C445        C457   1.478       .  S
C445        O453   1.264       .  A
C446        C532   1.478       .  S
C446        O451   1.265       .  A
C446        O449   1.263       .  A
Cd447       O454   2.479       .  S
Cd447       O453   2.440       .  S
Cd447       O451   2.482       .  S
Cd447       O449   2.451       .  S
C450        O454   1.263       .  A
C455        C456   1.404       .  A
C455        C460   1.403       .  A
C456        C457   1.404       .  A
C456        H461   1.083       .  S
C457        C458   1.403       .  A
C458        C459   1.405       .  A
C458        H462   1.084       .  S
C459        C460   1.405       .  A
C459        C472   1.475       .  S
C460        H463   1.084       .  S
O464        C467   1.267       .  A
O464       Cd577   2.481       .  S
C465        O582   1.266       .  A
C465        O470   1.268       .  A
O466        C472   1.262       .  A
O466       Cd469   2.465       .  S
C467        O583   1.265       .  A
C468        C522   1.478       .  S
C468        O473   1.265       .  A
C468        O579   1.264   1_554  A
Cd469       O572   2.481   1_554  S
Cd469       O476   2.473       .  S
Cd469       O475   2.443   1_554  S
Cd469       O474   2.438   1_554  S
Cd469       O578   2.473   1_554  S
Cd469       O473   2.486       .  S
Cd469       O579   2.450   1_554  S
O470       Cd577   2.473       .  S
O471        C576   1.264       .  A
O471       Cd577   2.450       .  S
C472        O476   1.263       .  A
O474        C573   1.266       .  A
O475        C575   1.265       .  A
C477        C478   1.404       .  A
C477        C482   1.404       .  A
C477        C509   1.480       .  S
C478        C479   1.406       .  A
C478        H483   1.084       .  S
C479        C480   1.406       .  A
C479        C494   1.477       .  S
C480        C481   1.403       .  A
C480        H484   1.084       .  S
C481        C482   1.404       .  A
C481        C511   1.480       .  S
C482        H485   1.083       .  S
O486        C489   1.268       .  A
O486       Cd599   2.474       .  S
C487        C499   1.480       .  S
C487        O604   1.265       .  A
C487        O492   1.267       .  A
O488        C494   1.262       .  A
O488       Cd491   2.471       .  S
C489        C501   1.480       .  S
C489        O605   1.266       .  A
C490        C525   1.479       .  S
C490        O495   1.265       .  A
C490        O601   1.263   1_554  A
Cd491       O594   2.474   1_554  S
Cd491       O498   2.478       .  S
Cd491       O497   2.441   1_554  S
Cd491       O496   2.443   1_554  S
Cd491       O600   2.486   1_554  S
Cd491       O495   2.488       .  S
Cd491       O601   2.453   1_554  S
O492       Cd599   2.486       .  S
O493        C598   1.263       .  A
O493       Cd599   2.453       .  S
C494        O498   1.263       .  A
O496        C595   1.265       .  A
O497        C597   1.266       .  A
C499        C500   1.404       .  A
C499        C504   1.404       .  A
C500        H505   1.083       .  S
C501        C502   1.403       .  A
C502        H506   1.084       .  S
C503        C504   1.407       .  A
C504        H507   1.083       .  S
O508        C511   1.268       .  A
O508       Cd513   2.477   1_565  S
C509        O518   1.265       .  A
C509        O514   1.268       .  A
O510        C516   1.262   1_565  A
O510       Cd513   2.474   1_565  S
C511        O519   1.266       .  A
C512        O517   1.265       .  A
C512        O515   1.263   1_565  A
Cd513       O520   2.480       .  S
Cd513       O519   2.440   1_545  S
Cd513       O517   2.485   1_545  S
Cd513       O515   2.459       .  S
C516        O520   1.263       .  A
C521        C630   1.404       .  A
C521        C526   1.395   1_655  A
C521        H527   1.083       .  S
C522        C629   1.404   1_554  A
C522        C523   1.406       .  A
C523        C524   1.401       .  A
C523        H528   1.083       .  S
C524        C525   1.406   1_655  A
C524        H529   1.083   1_655  S
C525        C634   1.404   1_554  A
C526        C633   1.404       .  A
C526        H530   1.083       .  S
C531        C532   1.405       .  A
C532        C533   1.405       .  A
C533        C534   1.400       .  A
C533        H538   1.083       .  S
C534        C535   1.406       .  A
C534        H539   1.083       .  S
C536        H540   1.083       .  S
C541        C542   1.403       .  A
C541        C546   1.404   1_565  A
C541        C573   1.479       .  S
C542        H547   1.084       .  S
C543        C544   1.406       .  A
C543        C558   1.477       .  S
C544        C545   1.404       .  A
C544        H548   1.084       .  S
C545        C575   1.479       .  S
C546        H549   1.083       .  S
O550        C553   1.267       .  A
O550       Cd555   2.477       .  S
C551        C563   1.478       .  S
C551        O560   1.266       .  A
C551        O556   1.268       .  A
O552        C558   1.262       .  A
O552       Cd555   2.471       .  S
C553        C565   1.478       .  S
C553        O561   1.264       .  A
C554        C640   1.478       .  S
C554        O559   1.265       .  A
C554        O557   1.263       .  A
Cd555       O562   2.479       .  S
Cd555       O561   2.440       .  S
Cd555       O559   2.482       .  S
Cd555       O557   2.451       .  S
C558        O562   1.263       .  A
C563        C564   1.404       .  A
C563        C568   1.403       .  A
C564        C565   1.404       .  A
C564        H569   1.083       .  S
C565        C566   1.403       .  A
C566        C567   1.405       .  A
C566        H570   1.084       .  S
C567        C568   1.405       .  A
C567        C580   1.475       .  S
C568        H571   1.084       .  S
O572        C575   1.267       .  A
C573        O578   1.268       .  A
O574        C580   1.262       .  A
O574       Cd577   2.465       .  S
C576        C630   1.478       .  S
C576        O581   1.265       .  A
Cd577       O584   2.473       .  S
Cd577       O583   2.443       .  S
Cd577       O582   2.438       .  S
Cd577       O581   2.486       .  S
C580        O584   1.263       .  A
C585        C586   1.404       .  A
C585        C590   1.404       .  A
C585        C617   1.480       .  S
C586        C587   1.406       .  A
C586        H591   1.084       .  S
C587        C588   1.406       .  A
C587        C602   1.477       .  S
C588        C589   1.403       .  A
C588        H592   1.084       .  S
C589        C590   1.404       .  A
C589        C619   1.480       .  S
C590        H593   1.083       .  S
O594        C597   1.268       .  A
C595        C607   1.480       .  S
C595        O600   1.267       .  A
O596        C602   1.262       .  A
O596       Cd599   2.471       .  S
C597        C609   1.480       .  S
C598        C633   1.479       .  S
C598        O603   1.265       .  A
Cd599       O606   2.478       .  S
Cd599       O605   2.441       .  S
Cd599       O604   2.443       .  S
Cd599       O603   2.488       .  S
C602        O606   1.263       .  A
C607        C608   1.404       .  A
C607        C612   1.404       .  A
C608        H613   1.083       .  S
C609        C610   1.403       .  A
C610        H614   1.084       .  S
C611        C612   1.407       .  A
C612        H615   1.083       .  S
O616        C619   1.268       .  A
O616       Cd621   2.477   1_565  S
C617        O626   1.265       .  A
C617        O622   1.268       .  A
O618        C624   1.262   1_565  A
O618       Cd621   2.474   1_565  S
C619        O627   1.266       .  A
C620        O625   1.265       .  A
C620        O623   1.263   1_565  A
Cd621       O628   2.480       .  S
Cd621       O627   2.440   1_545  S
Cd621       O625   2.485   1_545  S
Cd621       O623   2.459       .  S
C624        O628   1.263       .  A
C629        C634   1.395   1_655  A
C629        H635   1.083       .  S
C630        C631   1.406       .  A
C631        C632   1.401       .  A
C631        H636   1.083       .  S
C632        C633   1.406   1_655  A
C632        H637   1.083   1_655  S
C634        H638   1.083       .  S
C639        C640   1.405       .  A
C640        C641   1.405       .  A
C641        C642   1.400       .  A
C641        H646   1.083       .  S
C642        C643   1.406       .  A
C642        H647   1.083       .  S
C644        H648   1.083       .  S
