geometry optimzed in LAMMPS
_audit_creation_date              2020-11-30 
_audit_creation_method            'lammps2cif' 
_symmetry_space_group_name_H-M    'P1' 
_symmetry_Int_Tables_number       1 
_symmetry_cell_setting            triclinic 
loop_ 
_symmetry_equiv_pos_as_xyz 
  x,y,z 
_cell_length_a                    37.91843505 
_cell_length_b                    29.09824954882663 
_cell_length_c                    39.743957072385754 
_cell_angle_alpha                 90.30821646838861 
_cell_angle_beta                  90.01565728828686 
_cell_angle_gamma                 89.40726382343647 
loop_ 
_atom_site_label 
_atom_site_type_symbol 
_atom_site_fract_x 
_atom_site_fract_y 
_atom_site_fract_z 
_atom_site_charge 
C1          C  0.76317360  0.04108691  0.43039452     0.06400
C2          C  0.77491607  0.49945727  0.44419712    -0.09800
C3          C  0.76226949  0.45772661  0.43154339     0.03900
C4          C  0.73786280  0.45769207  0.40503727    -0.08300
C5          C  0.72613211  0.99935205  0.39122098     0.06400
C6          C  0.73880786  0.04101264  0.40391645    -0.07700
H7          H  0.79369863  0.49954501  0.46479101     0.12000
H8          H  0.72809736  0.42541710  0.39517941     0.09500
H9          H  0.72973427  0.07325826  0.39324077     0.09400
O10         O  0.64447747  0.04982927  0.20716017    -0.54500
C11         C  0.63473434  0.41462532  0.22021155     0.78100
O12         O  0.62704547  0.00418863  0.31197017    -0.55700
C13         C  0.63657137  0.08757697  0.22123458     0.78100
C14         C  0.54176994  0.00215518  0.25051515     0.80400
Cd15       Cd  0.61762216  0.00155811  0.25046350     1.37500
O16         O  0.63908427  0.45176500  0.20450041    -0.54500
O17         O  0.55929362  0.00560212  0.22359748    -0.53400
C18         C  0.66027515  0.00097864  0.31018439     0.80400
O19         O  0.55939031  0.99855730  0.27742955    -0.55700
O20         O  0.62191173  0.41736189  0.24948122    -0.54200
O21         O  0.61963833  0.08589274  0.24856661    -0.54200
O22         O  0.67372552  0.99841518  0.28116126    -0.53300
C23         C  0.66840485  0.20883524  0.18143957     0.06400
C24         C  0.69307827  0.20847409  0.15521145    -0.09800
C25         C  0.70493659  0.24997589  0.14183355     0.03900
C26         C  0.69207758  0.29179375  0.15468975    -0.08300
C27         C  0.66739176  0.29209777  0.18089462     0.06400
C28         C  0.65559808  0.25063699  0.19431865    -0.07700
H29         H  0.70292178  0.17606054  0.14519961     0.12000
H30         H  0.70117214  0.32395141  0.14429638     0.09500
H31         H  0.63656517  0.25090110  0.21469993     0.09400
O32         O  0.78733776  0.20081950  0.45681686    -0.54500
C33         C  0.79420888  0.33576547  0.47225676     0.78100
O34         O  0.80401404  0.25624607  0.06264930    -0.55700
C35         C  0.79524834  0.16289566  0.47034992     0.78100
C36         C  0.89009533  0.24701336  0.00110875     0.80400
Cd37       Cd  0.81373940  0.24881016  0.00123521     1.37500
O38         O  0.79193516  0.29869648  0.45571982    -0.54500
O39         O  0.87240711  0.25644115  0.47503918    -0.53400
C40         C  0.77119282  0.24917028  0.06113213     0.80400
O41         O  0.87251060  0.23856689  0.02737879    -0.55700
O42         O  0.80578550  0.33310877  0.00197479    -0.54200
O43         O  0.81212978  0.16439786  0.99769687    -0.54200
O44         O  0.75816755  0.24190775  0.03237279    -0.53300
C45         C  0.26445665  0.29352831  0.18083807     0.06400
C46         C  0.23990405  0.29342938  0.15455308    -0.09800
C47         C  0.22649794  0.25181368  0.14259752     0.03900
C48         C  0.23765800  0.21027012  0.15690792    -0.08300
C49         C  0.26230605  0.21039424  0.18315931     0.06400
C50         C  0.27565496  0.25204021  0.19519041    -0.07700
H51         H  0.23129824  0.32559970  0.14342476     0.12000
H52         H  0.22741384  0.17800121  0.14750167     0.09500
H53         H  0.29466537  0.25216299  0.21559466     0.09400
O54         O  0.14539223  0.20032363  0.45789725    -0.54500
C55         C  0.13803110  0.33556282  0.47246189     0.78100
O56         O  0.06027446  0.24009658  0.02768876    -0.55700
C57         C  0.13835137  0.16290026  0.47229650     0.78100
C58         C  0.16096435  0.25106540  0.06156368     0.80400
Cd59       Cd  0.11881096  0.24948213  0.00169807     1.37500
O60         O  0.14248330  0.29809388  0.45672249    -0.54500
O61         O  0.17408776  0.24176211  0.03311673    -0.53400
C62         C  0.04264141  0.24764238  0.00121380     0.80400
O63         O  0.12823732  0.25971995  0.06273260    -0.55700
O64         O  0.12421107  0.33354008  0.00132900    -0.54200
O65         O  0.12190410  0.16518658  0.99985193    -0.54200
O66         O  0.06024231  0.25632059  0.47500370    -0.53300
C67         C  0.17085475  0.45678780  0.43313389     0.06400
C68         C  0.19477143  0.45616475  0.40627144    -0.09800
C69         C  0.20686647  0.49752407  0.39285758     0.03900
C70         C  0.19496603  0.03949387  0.40626664    -0.08300
C71         C  0.17104251  0.04011622  0.43310528     0.06400
C72         C  0.15904347  0.49876763  0.44660262    -0.07700
H73         H  0.20385483  0.42365091  0.39580121     0.12000
H74         H  0.20419517  0.07153502  0.39579101     0.09500
H75         H  0.14054770  0.49925719  0.46742769     0.09400
O76         O  0.28500715  0.45316231  0.20818460    -0.54500
C77         C  0.29445832  0.08832681  0.22294067     0.78100
O78         O  0.30489062  0.50205788  0.31270737    -0.55700
C79         C  0.29692214  0.41554705  0.21940436     0.78100
C80         C  0.38960214  0.50186021  0.25070433     0.80400
Cd81       Cd  0.31374941  0.50112866  0.25102689     1.37500
O82         O  0.29166263  0.05154165  0.20616353    -0.54900
O83         O  0.37186284  0.50711678  0.22401313    -0.53400
C84         C  0.27175688  0.49809294  0.31117028     0.80400
O85         O  0.37218859  0.49649832  0.27753451    -0.55700
O86         O  0.30666269  0.08521869  0.25243308    -0.54200
O87         O  0.31706199  0.41732579  0.24467109    -0.54200
O88         O  0.25814791  0.49531026  0.28224922    -0.53300
C89         C  0.25028577  0.49715061  0.34084149    -0.10000
C90         C  0.23096502  0.49699047  0.36490863    -0.11600
C91         C  0.14867800  0.37843857  0.45837973    -0.10000
C92         C  0.15848409  0.41429956  0.44685866    -0.11600
C93         C  0.15882741  0.08324396  0.44674664    -0.10000
C94         C  0.14907415  0.11958480  0.45820907    -0.11600
C95         C  0.28726514  0.37255540  0.20467257    -0.10000
C96         C  0.27760596  0.33634685  0.19344288    -0.11600
C97         C  0.27413537  0.16773272  0.19749981    -0.10000
C98         C  0.28380909  0.13167350  0.20920092    -0.11600
C99         C  0.18250865  0.25166988  0.09113416    -0.10000
C100        C  0.20199360  0.25174132  0.11504451    -0.11600
C101        C  0.94805252  0.23558902  0.03029275    -0.10100
C102        C  0.92912714  0.24633488  0.00093106     0.12100
C103        C  0.94784714  0.25688772  0.97149288    -0.10100
C104        C  0.98473551  0.25708471  0.97151635    -0.10100
C105        C  0.00364161  0.24674774  0.00098322     0.12100
C106        C  0.98492517  0.23582117  0.03032326    -0.10100
H107        H  0.93435638  0.22721697  0.05332934     0.16100
H108        H  0.93398051  0.26525368  0.94846068     0.16100
H109        H  0.99844508  0.26558739  0.94850776     0.16100
H110        H  0.99878133  0.22759101  0.05338298     0.16100
C111        C  0.72968835  0.24966922  0.11440616    -0.10000
C112        C  0.74941015  0.24947570  0.09062852    -0.11600
C113        C  0.48423408  0.49363228  0.28030950    -0.10100
C114        C  0.50286428  0.00221415  0.25051171     0.12100
C115        C  0.48399509  0.01065992  0.22071988    -0.10100
C116        C  0.44714892  0.01055401  0.22075408    -0.10100
C117        C  0.42852224  0.50196370  0.25057697     0.12100
C118        C  0.44741282  0.49345611  0.28033360    -0.10100
H119        H  0.49811937  0.48687296  0.30361040     0.16100
H120        H  0.49770429  0.01746190  0.19739297     0.16100
H121        H  0.43325093  0.01727316  0.19745216     0.16100
H122        H  0.43373358  0.48660284  0.30366439     0.16100
C123        C  0.64681717  0.13047269  0.20699232    -0.10000
C124        C  0.65635088  0.16629099  0.19524381    -0.11600
C125        C  0.65447643  0.33501640  0.19423293    -0.10000
C126        C  0.64467031  0.37126786  0.20576075    -0.11600
C127        C  0.78510534  0.12002322  0.45553237    -0.10000
C128        C  0.77559716  0.08396582  0.44379340    -0.11600
C129        C  0.77415701  0.41495867  0.44590320    -0.10000
C130        C  0.78368700  0.37897171  0.45796225    -0.11600
C131        C  0.70157957  0.99948787  0.36360564    -0.10000
C132        C  0.68199845  0.00017085  0.33971605    -0.11600
C133        C  0.76321820  0.04113484  0.93033205     0.06400
C134        C  0.77492533  0.49949881  0.94415128    -0.09800
C135        C  0.76225941  0.45777617  0.93150019     0.03900
C136        C  0.73787474  0.45775706  0.90497639    -0.08300
C137        C  0.72618182  0.99942319  0.89114359     0.06400
C138        C  0.73887277  0.04107519  0.90383780    -0.07700
H139        H  0.79369055  0.49957568  0.96475971     0.12000
H140        H  0.72809306  0.42548926  0.89512089     0.09500
H141        H  0.72982276  0.07332569  0.89315191     0.09400
O142        O  0.64466938  0.04989980  0.70724799    -0.54500
C143        C  0.63464889  0.41467975  0.72015364     0.78100
O144        O  0.62709071  0.00434713  0.81192571    -0.55700
C145        C  0.63666054  0.08764677  0.72127323     0.78100
C146        C  0.54179481  0.00220332  0.75053572     0.80400
Cd147      Cd  0.61763463  0.00161946  0.75043724     1.37500
O148        O  0.63882294  0.45180229  0.70437435    -0.54500
O149        O  0.55930037  0.00586603  0.72362421    -0.53400
C150        C  0.66031577  0.00105709  0.81012079     0.80400
O151        O  0.55942988  0.99840692  0.77742702    -0.55700
O152        O  0.62204102  0.41743604  0.74950662    -0.54200
O153        O  0.61958446  0.08595833  0.74852449    -0.54200
O154        O  0.67374689  0.99840359  0.78109314    -0.53300
C155        C  0.66849338  0.20891210  0.68148208     0.06400
C156        C  0.69318522  0.20856851  0.65526892    -0.09800
C157        C  0.70498450  0.25007859  0.64185446     0.03900
C158        C  0.69204796  0.29188564  0.65465988    -0.08300
C159        C  0.66734792  0.29217046  0.68085263     0.06400
C160        C  0.65561224  0.25070326  0.69431114    -0.07700
H161        H  0.70308525  0.17616235  0.64529439     0.12000
H162        H  0.70109859  0.32404932  0.64424121     0.09500
H163        H  0.63656730  0.25095434  0.71468234     0.09400
O164        O  0.78727540  0.20086542  0.95681964    -0.54500
C165        C  0.79412928  0.33580320  0.97224819     0.78100
O166        O  0.80410156  0.25612926  0.56267880    -0.55700
C167        C  0.79526005  0.16293984  0.97031382     0.78100
C168        C  0.89011133  0.24701626  0.50111410     0.80400
Cd169      Cd  0.81377138  0.24877191  0.50125067     1.37500
O170        O  0.79186456  0.29873380  0.95571165    -0.54500
O171        O  0.87239397  0.25631839  0.97500826    -0.53400
C172        C  0.77125292  0.24925767  0.56116267     0.80400
O173        O  0.87253412  0.23841072  0.52735906    -0.55700
O174        O  0.80585793  0.33306881  0.50198646    -0.54200
O175        O  0.81206548  0.16435545  0.49776151    -0.54200
O176        O  0.75818937  0.24215653  0.53239731    -0.53300
C177        C  0.26449079  0.29353542  0.68085698     0.06400
C178        C  0.23994265  0.29346738  0.65456687    -0.09800
C179        C  0.22647556  0.25187283  0.64263319     0.03900
C180        C  0.23757748  0.21031623  0.65696791    -0.08300
C181        C  0.26222537  0.21040648  0.68322206     0.06400
C182        C  0.27562579  0.25203491  0.69523485    -0.07700
H183        H  0.23138581  0.32564619  0.64341875     0.12000
H184        H  0.22729377  0.17806269  0.64757412     0.09500
H185        H  0.29463553  0.25213366  0.71563975     0.09400
O186        O  0.14539105  0.20026407  0.95785979    -0.54500
C187        C  0.13804832  0.33549971  0.97246893     0.78100
O188        O  0.06027222  0.24012172  0.52768616    -0.55700
C189        C  0.13840276  0.16283889  0.97227985     0.78100
C190        C  0.16094125  0.25117828  0.56159080     0.80400
Cd191      Cd  0.11879697  0.24956531  0.50171390     1.37500
O192        O  0.14248731  0.29803832  0.95671736    -0.54500
O193        O  0.17404657  0.24172574  0.53316165    -0.53400
C194        C  0.04264026  0.24775960  0.50122472     0.80400
O195        O  0.12823412  0.25997273  0.56273817    -0.55700
O196        O  0.12418630  0.33361596  0.50131877    -0.54200
O197        O  0.12181017  0.16525774  0.49984572    -0.54200
O198        O  0.06024619  0.25612635  0.97498012    -0.53300
C199        C  0.17088923  0.45672216  0.93314433     0.06400
C200        C  0.19482365  0.45608924  0.90629616    -0.09800
C201        C  0.20692839  0.49744419  0.89288344     0.03900
C202        C  0.19502254  0.03941779  0.90627728    -0.08300
C203        C  0.17108373  0.04005038  0.93310128     0.06400
C204        C  0.15907154  0.49870810  0.94659847    -0.07700
H205        H  0.20391328  0.42357223  0.89583652     0.12000
H206        H  0.20426114  0.07145521  0.89580201     0.09500
H207        H  0.14056385  0.49920718  0.96741347     0.09400
O208        O  0.28501542  0.45313919  0.70824959    -0.54500
C209        C  0.29442412  0.08833113  0.72298766     0.78100
O210        O  0.30494901  0.50218253  0.81274097    -0.55700
C211        C  0.29703746  0.41553832  0.71939408     0.78100
C212        C  0.38963528  0.50187583  0.75075778     0.80400
Cd213      Cd  0.31379077  0.50113146  0.75105960     1.37500
O214        O  0.29155229  0.05152867  0.70624354    -0.54900
O215        O  0.37189685  0.50733289  0.72408625    -0.53400
C216        C  0.27182953  0.49804418  0.81121501     0.80400
O217        O  0.37222309  0.49631544  0.77756553    -0.55700
O218        O  0.30675264  0.08524477  0.75243499    -0.54200
O219        O  0.31726555  0.41733640  0.74459565    -0.54200
O220        O  0.25822412  0.49511136  0.78230165    -0.53300
C221        C  0.25036732  0.49707981  0.84088803    -0.10000
C222        C  0.23104143  0.49690638  0.86494918    -0.11600
C223        C  0.14869962  0.37837957  0.95839390    -0.10000
C224        C  0.15851053  0.41423847  0.94687179    -0.11600
C225        C  0.15887420  0.08318430  0.94673163    -0.10000
C226        C  0.14912938  0.11953041  0.95818847    -0.11600
C227        C  0.28738717  0.37254005  0.70466233    -0.10000
C228        C  0.27769878  0.33633720  0.69344236    -0.11600
C229        C  0.27403076  0.16772922  0.69756500    -0.10000
C230        C  0.28372522  0.13167209  0.70926091    -0.11600
C231        C  0.18248378  0.25178423  0.59116539    -0.10000
C232        C  0.20197007  0.25183476  0.61507693    -0.11600
C233        C  0.94806535  0.23560548  0.53029070    -0.10100
C234        C  0.92913826  0.24638638  0.50093812     0.12100
C235        C  0.94785051  0.25702687  0.47151368    -0.10100
C236        C  0.98473684  0.25725785  0.47153939    -0.10100
C237        C  0.00364450  0.24686937  0.50099514     0.12100
C238        C  0.98493497  0.23587400  0.53032392    -0.10100
H239        H  0.93437297  0.22717539  0.55331767     0.16100
H240        H  0.93397979  0.26542593  0.44849025     0.16100
H241        H  0.99844330  0.26581674  0.44854063     0.16100
H242        H  0.99879426  0.22760922  0.55337542     0.16100
C243        C  0.72975377  0.24978885  0.61444060    -0.10000
C244        C  0.74948141  0.24959464  0.59066696    -0.11600
C245        C  0.48427520  0.49338280  0.78030728    -0.10100
C246        C  0.50289197  0.00224447  0.75054788     0.12100
C247        C  0.48401258  0.01095394  0.72080366    -0.10100
C248        C  0.44716883  0.01083985  0.72084631    -0.10100
C249        C  0.42855370  0.50197812  0.75062984     0.12100
C250        C  0.44745361  0.49319902  0.78033962    -0.10100
H251        H  0.49817099  0.48641222  0.80356954     0.16100
H252        H  0.49771194  0.01797254  0.69750772     0.16100
H253        H  0.43326333  0.01776958  0.69758163     0.16100
H254        H  0.43378178  0.48612878  0.80363804     0.16100
C255        C  0.64694032  0.13054666  0.70705950    -0.10000
C256        C  0.65647737  0.16636308  0.69530988    -0.11600
C257        C  0.65437929  0.33507728  0.69416276    -0.10000
C258        C  0.64455900  0.37132276  0.70568852    -0.11600
C259        C  0.78513987  0.12006547  0.95548555    -0.10000
C260        C  0.77564381  0.08400766  0.94373861    -0.11600
C261        C  0.77410124  0.41500070  0.94588197    -0.10000
C262        C  0.78360560  0.37900892  0.95795193    -0.11600
C263        C  0.70163965  0.99957290  0.86352300    -0.10000
C264        C  0.68205498  0.00025785  0.83963815    -0.11600
C265        C  0.76317353  0.54108684  0.43039460     0.06400
C266        C  0.77491629  0.99945735  0.44419692    -0.09800
C267        C  0.76226977  0.95772669  0.43154321     0.03900
C268        C  0.73786298  0.95769215  0.40503718    -0.08300
C269        C  0.72613201  0.49935198  0.39122104     0.06400
C270        C  0.73880783  0.54101262  0.40391647    -0.07700
H271        H  0.79369903  0.99954514  0.46479090     0.12000
H272        H  0.72809746  0.92541709  0.39517936     0.09500
H273        H  0.72973438  0.57325798  0.39324082     0.09400
O274        O  0.64447771  0.54982929  0.20716012    -0.54500
C275        C  0.63473431  0.91462516  0.22021163     0.78100
O276        O  0.62704553  0.50418844  0.31196998    -0.55700
C277        C  0.63657149  0.58757699  0.22123446     0.78100
C278        C  0.54176993  0.50215519  0.25051514     0.80400
Cd279      Cd  0.61762217  0.50155805  0.25046332     1.37500
O280        O  0.63908425  0.95176484  0.20450050    -0.54500
O281        O  0.55929359  0.50560192  0.22359744    -0.53400
C282        C  0.66027522  0.50097871  0.31018424     0.80400
O283        O  0.55939032  0.49855753  0.27742955    -0.55700
O284        O  0.62191171  0.91736176  0.24948129    -0.54200
O285        O  0.61963827  0.58589277  0.24856639    -0.54200
O286        O  0.67372561  0.49841539  0.28116111    -0.53300
C287        C  0.66840499  0.70883520  0.18143956     0.06400
C288        C  0.69307835  0.70847412  0.15521143    -0.09800
C289        C  0.70493674  0.74997584  0.14183357     0.03900
C290        C  0.69207779  0.79179381  0.15468977    -0.08300
C291        C  0.66739195  0.79209772  0.18089469     0.06400
C292        C  0.65559829  0.75063696  0.19431870    -0.07700
H293        H  0.70292182  0.67606028  0.14519941     0.12000
H294        H  0.70117224  0.82395110  0.14429647     0.09500
H295        H  0.63656538  0.75090103  0.21469996     0.09400
O296        O  0.78733792  0.70081949  0.45681675    -0.54500
C297        C  0.79420899  0.83576555  0.47225660     0.78100
O298        O  0.80401411  0.75624584  0.06264918    -0.55700
C299        C  0.79524838  0.66289568  0.47034992     0.78100
C300        C  0.89009531  0.74701332  0.00110867     0.80400
Cd301      Cd  0.81373938  0.74880998  0.00123517     1.37500
O302        O  0.79193491  0.79869654  0.45571975    -0.54500
O303        O  0.87240715  0.75644088  0.47503894    -0.53400
C304        C  0.77119287  0.74917007  0.06113208     0.80400
O305        O  0.87251059  0.73856660  0.02737866    -0.55700
O306        O  0.80578548  0.83310861  0.00197480    -0.54200
O307        O  0.81212994  0.66439779  0.99769669    -0.54200
O308        O  0.75816753  0.74190753  0.03237276    -0.53300
C309        C  0.26445663  0.79352829  0.18083808     0.06400
C310        C  0.23990400  0.79342936  0.15455307    -0.09800
C311        C  0.22649788  0.75181363  0.14259752     0.03900
C312        C  0.23765796  0.71027010  0.15690792    -0.08300
C313        C  0.26230603  0.71039419  0.18315930     0.06400
C314        C  0.27565496  0.75204016  0.19519038    -0.07700
H315        H  0.23129819  0.82559965  0.14342477     0.12000
H316        H  0.22741378  0.67800112  0.14750168     0.09500
H317        H  0.29466541  0.75216288  0.21559457     0.09400
O318        O  0.14539221  0.70032366  0.45789706    -0.54500
C319        C  0.13803105  0.83556291  0.47246185     0.78100
O320        O  0.06027445  0.74009639  0.02768868    -0.55700
C321        C  0.13835136  0.66290028  0.47229631     0.78100
C322        C  0.16096425  0.75106532  0.06156366     0.80400
Cd323      Cd  0.11881094  0.74948219  0.00169793     1.37500
O324        O  0.14248327  0.79809397  0.45672246    -0.54500
O325        O  0.17408761  0.74176156  0.03311677    -0.53400
C326        C  0.04264139  0.74764251  0.00121378     0.80400
O327        O  0.12823729  0.75972038  0.06273249    -0.55700
O328        O  0.12421131  0.83354012  0.00132901    -0.54200
O329        O  0.12190380  0.66518657  0.99985170    -0.54200
O330        O  0.06024231  0.75632008  0.47500363    -0.53300
C331        C  0.17085468  0.95678792  0.43313390     0.06400
C332        C  0.19477138  0.95616487  0.40627146    -0.09800
C333        C  0.20686643  0.99752419  0.39285761     0.03900
C334        C  0.19496602  0.53949373  0.40626657    -0.08300
C335        C  0.17104247  0.54011612  0.43310518     0.06400
C336        C  0.15904345  0.99876774  0.44660265    -0.07700
H337        H  0.20385478  0.92365103  0.39580120     0.12000
H338        H  0.20419519  0.57153504  0.39579089     0.09500
H339        H  0.14054762  0.99925728  0.46742771     0.09400
O340        O  0.28500689  0.95316238  0.20818489    -0.54500
C341        C  0.29445822  0.58832677  0.22294072     0.78100
O342        O  0.30489062  0.00205810  0.31270737    -0.55700
C343        C  0.29692218  0.91554713  0.21940441     0.78100
C344        C  0.38960214  0.00186026  0.25070435     0.80400
Cd345      Cd  0.31374943  0.00112880  0.25102689     1.37500
O346        O  0.29166240  0.55154155  0.20616365    -0.54900
O347        O  0.37186287  0.00711705  0.22401315    -0.53400
C348        C  0.27175688  0.99809309  0.31117032     0.80400
O349        O  0.37218858  0.99649817  0.27753450    -0.55700
O350        O  0.30666270  0.58521869  0.25243308    -0.54200
O351        O  0.31706235  0.91732593  0.24467092    -0.54200
O352        O  0.25814790  0.99531039  0.28224927    -0.53300
C353        C  0.25028579  0.99715074  0.34084156    -0.10000
C354        C  0.23096501  0.99699061  0.36490867    -0.11600
C355        C  0.14867791  0.87843868  0.45837968    -0.10000
C356        C  0.15848394  0.91429971  0.44685862    -0.11600
C357        C  0.15882737  0.58324389  0.44674655    -0.10000
C358        C  0.14907414  0.61958481  0.45820891    -0.11600
C359        C  0.28726514  0.87255545  0.20467261    -0.10000
C360        C  0.27760596  0.83634686  0.19344292    -0.11600
C361        C  0.27413535  0.66773268  0.19749981    -0.10000
C362        C  0.28380904  0.63167344  0.20920093    -0.11600
C363        C  0.18250854  0.75166986  0.09113417    -0.10000
C364        C  0.20199345  0.75174124  0.11504455    -0.11600
C365        C  0.94805249  0.73558846  0.03029256    -0.10100
C366        C  0.92912712  0.74633498  0.00093098     0.12100
C367        C  0.94784710  0.75688845  0.97149291    -0.10100
C368        C  0.98473550  0.75708529  0.97151636    -0.10100
C369        C  0.00364159  0.74674782  0.00098316     0.12100
C370        C  0.98492514  0.73582062  0.03032304    -0.10100
H371        H  0.93435643  0.72721590  0.05332893     0.16100
H372        H  0.93398055  0.76525488  0.94846092     0.16100
H373        H  0.99844500  0.76558824  0.94850793     0.16100
H374        H  0.99878135  0.72758989  0.05338276     0.16100
C375        C  0.72968841  0.74966906  0.11440612    -0.10000
C376        C  0.74941024  0.74947550  0.09062849    -0.11600
C377        C  0.48423409  0.99363188  0.28030946    -0.10100
C378        C  0.50286427  0.50221410  0.25051170     0.12100
C379        C  0.48399509  0.51065937  0.22071977    -0.10100
C380        C  0.44714891  0.51055349  0.22075395    -0.10100
C381        C  0.42852225  0.00196374  0.25057701     0.12100
C382        C  0.44741282  0.99345579  0.28033358    -0.10100
H383        H  0.49811938  0.98687216  0.30361027     0.16100
H384        H  0.49770429  0.51746100  0.19739282     0.16100
H385        H  0.43325096  0.51727221  0.19745202     0.16100
H386        H  0.43373356  0.98660231  0.30366438     0.16100
C387        C  0.64681723  0.63047269  0.20699217    -0.10000
C388        C  0.65635091  0.66629097  0.19524364    -0.11600
C389        C  0.65447651  0.83501625  0.19423304    -0.10000
C390        C  0.64467028  0.87126766  0.20576084    -0.11600
C391        C  0.78510530  0.62002321  0.45553243    -0.10000
C392        C  0.77559710  0.58396578  0.44379352    -0.11600
C393        C  0.77415728  0.91495877  0.44590303    -0.10000
C394        C  0.78368722  0.87897183  0.45796212    -0.11600
C395        C  0.70157952  0.49948783  0.36360562    -0.10000
C396        C  0.68199847  0.50017093  0.33971596    -0.11600
C397        C  0.76321848  0.54113495  0.93033176     0.06400
C398        C  0.77492505  0.99949863  0.94415149    -0.09800
C399        C  0.76225919  0.95777602  0.93150027     0.03900
C400        C  0.73787450  0.95775699  0.90497647    -0.08300
C401        C  0.72618209  0.49942316  0.89114340     0.06400
C402        C  0.73887307  0.54107529  0.90383743    -0.07700
H403        H  0.79369025  0.99957543  0.96475990     0.12000
H404        H  0.72809289  0.92548928  0.89512084     0.09500
H405        H  0.72982319  0.57332525  0.89315159     0.09400
O406        O  0.64466910  0.54989989  0.70724776    -0.54500
C407        C  0.63464888  0.91467960  0.72015363     0.78100
O408        O  0.62709084  0.50434735  0.81192569    -0.55700
C409        C  0.63666051  0.58764687  0.72127313     0.78100
C410        C  0.54179480  0.50220340  0.75053571     0.80400
Cd411      Cd  0.61763463  0.50161956  0.75043724     1.37500
O412        O  0.63882269  0.95180214  0.70437429    -0.54500
O413        O  0.55930036  0.50586618  0.72362422    -0.53400
C414        C  0.66031588  0.50105709  0.81012077     0.80400
O415        O  0.55942988  0.49840683  0.77742700    -0.55700
O416        O  0.62204124  0.91743588  0.74950670    -0.54200
O417        O  0.61958470  0.58595846  0.74852454    -0.54200
O418        O  0.67374698  0.49840319  0.78109313    -0.53300
C419        C  0.66849330  0.70891213  0.68148187     0.06400
C420        C  0.69318515  0.70856851  0.65526874    -0.09800
C421        C  0.70498449  0.75007854  0.64185424     0.03900
C422        C  0.69204791  0.79188559  0.65465963    -0.08300
C423        C  0.66734789  0.79217046  0.68085237     0.06400
C424        C  0.65561220  0.75070330  0.69431091    -0.07700
H425        H  0.70308525  0.67616210  0.64529414     0.12000
H426        H  0.70109861  0.82404945  0.64424085     0.09500
H427        H  0.63656727  0.75095441  0.71468210     0.09400
O428        O  0.78727548  0.70086546  0.95681953    -0.54500
C429        C  0.79412926  0.83580306  0.97224819     0.78100
O430        O  0.80410165  0.75612903  0.56267859    -0.55700
C431        C  0.79526024  0.66293985  0.97031362     0.78100
C432        C  0.89011130  0.74701622  0.50111396     0.80400
Cd433      Cd  0.81377138  0.74877202  0.50125046     1.37500
O434        O  0.79186454  0.79873365  0.95571165    -0.54500
O435        O  0.87239394  0.75631851  0.97500821    -0.53400
C436        C  0.77125295  0.74925781  0.56116244     0.80400
O437        O  0.87253404  0.73841110  0.52735894    -0.55700
O438        O  0.80585824  0.83306888  0.50198623    -0.54200
O439        O  0.81206546  0.66435552  0.49776155    -0.54200
O440        O  0.75818935  0.74215701  0.53239707    -0.53300
C441        C  0.26449054  0.79353534  0.68085717     0.06400
C442        C  0.23994250  0.79346730  0.65456698    -0.09800
C443        C  0.22647549  0.75187280  0.64263314     0.03900
C444        C  0.23757734  0.71031611  0.65696784    -0.08300
C445        C  0.26222515  0.71040635  0.68322209     0.06400
C446        C  0.27562555  0.75203473  0.69523493    -0.07700
H447        H  0.23138571  0.82564627  0.64341883     0.12000
H448        H  0.22729376  0.67806282  0.64757403     0.09500
H449        H  0.29463543  0.75213335  0.71563992     0.09400
O450        O  0.14539126  0.70026408  0.95785983    -0.54500
C451        C  0.13804852  0.83549966  0.97246892     0.78100
O452        O  0.06027218  0.74012184  0.52768619    -0.55700
C453        C  0.13840274  0.66283890  0.97227979     0.78100
C454        C  0.16094123  0.75117822  0.56159065     0.80400
Cd455      Cd  0.11879695  0.74956520  0.50171384     1.37500
O456        O  0.14248733  0.79803826  0.95671732    -0.54500
O457        O  0.17404664  0.74172609  0.53316147    -0.53400
C458        C  0.04264024  0.74775937  0.50122469     0.80400
O459        O  0.12823403  0.75997218  0.56273805    -0.55700
O460        O  0.12418626  0.83361601  0.50131872    -0.54200
O461        O  0.12181016  0.66525775  0.49984553    -0.54200
O462        O  0.06024616  0.75612681  0.97498016    -0.53300
C463        C  0.17088941  0.95672209  0.93314440     0.06400
C464        C  0.19482386  0.95608924  0.90629629    -0.09800
C465        C  0.20692854  0.99744415  0.89288350     0.03900
C466        C  0.19502235  0.53941790  0.90627708    -0.08300
C467        C  0.17108358  0.54005046  0.93310113     0.06400
C468        C  0.15907169  0.99870800  0.94659853    -0.07700
H469        H  0.20391366  0.92357183  0.89583654     0.12000
H470        H  0.20426084  0.57145501  0.89580182     0.09500
H471        H  0.14056379  0.99920701  0.96741360     0.09400
O472        O  0.28501539  0.95313926  0.70824958    -0.54500
C473        C  0.29442412  0.58833110  0.72298760     0.78100
O474        O  0.30494920  0.00218271  0.81274100    -0.55700
C475        C  0.29703742  0.91553837  0.71939405     0.78100
C476        C  0.38963529  0.00187557  0.75075775     0.80400
Cd477      Cd  0.31379082  0.00113141  0.75105960     1.37500
O478        O  0.29155227  0.55152867  0.70624346    -0.54900
O479        O  0.37189685  0.00733305  0.72408626    -0.53400
C480        C  0.27182972  0.99804433  0.81121502     0.80400
O481        O  0.37222311  0.99631485  0.77756546    -0.55700
O482        O  0.30675261  0.58524472  0.75243495    -0.54200
O483        O  0.31726551  0.91733645  0.74459563    -0.54200
O484        O  0.25822433  0.99511146  0.78230166    -0.53300
C485        C  0.25036744  0.99707995  0.84088803    -0.10000
C486        C  0.23104156  0.99690645  0.86494920    -0.11600
C487        C  0.14869981  0.87837949  0.95839387    -0.10000
C488        C  0.15851062  0.91423843  0.94687178    -0.11600
C489        C  0.15887418  0.58318437  0.94673157    -0.10000
C490        C  0.14912938  0.61953043  0.95818845    -0.11600
C491        C  0.28738708  0.87254007  0.70466233    -0.10000
C492        C  0.27769861  0.83633714  0.69344249    -0.11600
C493        C  0.27403052  0.66772906  0.69756499    -0.10000
C494        C  0.28372516  0.63167202  0.70926090    -0.11600
C495        C  0.18248379  0.75178426  0.59116524    -0.10000
C496        C  0.20197011  0.75183473  0.61507677    -0.11600
C497        C  0.94806531  0.73560557  0.53029070    -0.10100
C498        C  0.92913823  0.74638625  0.50093806     0.12100
C499        C  0.94785052  0.75702659  0.47151364    -0.10100
C500        C  0.98473680  0.75725738  0.47153932    -0.10100
C501        C  0.00364448  0.74686913  0.50099507     0.12100
C502        C  0.98493495  0.73587407  0.53032393    -0.10100
H503        H  0.93437294  0.72717563  0.55331771     0.16100
H504        H  0.93397969  0.76542568  0.44849008     0.16100
H505        H  0.99844338  0.76581613  0.44854033     0.16100
H506        H  0.99879423  0.72760950  0.55337543     0.16100
C507        C  0.72975382  0.74978878  0.61444043    -0.10000
C508        C  0.74948145  0.74959471  0.59066676    -0.11600
C509        C  0.48427522  0.99338239  0.78030725    -0.10100
C510        C  0.50289196  0.50224467  0.75054790     0.12100
C511        C  0.48401256  0.51095407  0.72080364    -0.10100
C512        C  0.44716880  0.51083999  0.72084634    -0.10100
C513        C  0.42855371  0.00197789  0.75062978     0.12100
C514        C  0.44745357  0.99319873  0.78033961    -0.10100
H515        H  0.49817085  0.98641171  0.80356933     0.16100
H516        H  0.49771181  0.51797258  0.69750782     0.16100
H517        H  0.43326330  0.51776969  0.69758170     0.16100
H518        H  0.43378189  0.98612859  0.80363775     0.16100
C519        C  0.64694023  0.63054676  0.70705935    -0.10000
C520        C  0.65647722  0.66636319  0.69530973    -0.11600
C521        C  0.65437926  0.83507723  0.69416256    -0.10000
C522        C  0.64455899  0.87132264  0.70568846    -0.11600
C523        C  0.78514010  0.62006554  0.95548528    -0.10000
C524        C  0.77564403  0.58400778  0.94373831    -0.11600
C525        C  0.77410115  0.91500051  0.94588193    -0.10000
C526        C  0.78360558  0.87900877  0.95795192    -0.11600
C527        C  0.70163973  0.49957282  0.86352297    -0.10000
C528        C  0.68205505  0.50025791  0.83963814    -0.11600
loop_ 
_geom_bond_atom_site_label_1 
_geom_bond_atom_site_label_2 
_geom_bond_distance 
_geom_bond_site_symmetry_2 
_ccdc_geom_bond_type 
C1            C6   1.400       .  A
C1          C266   1.401   1_545  A
C1          C128   1.438       .  S
C2            C3   1.401       .  A
C2          C265   1.401       .  A
C2            H7   1.085       .  S
C3            C4   1.402       .  A
C3          C129   1.440       .  S
C4          C269   1.402       .  A
C4            H8   1.084       .  S
C5            C6   1.400   1_565  A
C5          C268   1.402       .  A
C5          C131   1.439       .  S
C6            H9   1.085       .  S
O10          C13   1.263       .  A
O10         Cd15   2.455       .  S
C11         C126   1.430       .  S
C11          O20   1.263       .  A
C11          O16   1.263       .  A
O12          C18   1.264       .  A
O12         Cd15   2.471       .  S
C13         C123   1.431       .  S
C13          O21   1.263       .  A
C14          O19   1.265   1_545  A
C14          O17   1.265       .  A
C14         C114   1.475       .  S
Cd15         O22   2.453   1_545  S
Cd15         O21   2.458       .  S
Cd15         O19   2.457   1_545  S
Cd15         O17   2.458       .  S
Cd15        O284   2.454   1_545  S
Cd15        O280   2.459   1_545  S
O16        Cd279   2.459       .  S
C18         C132   1.434       .  S
C18          O22   1.263   1_545  A
O20        Cd279   2.454       .  S
C23          C24   1.401       .  A
C23          C28   1.399       .  A
C23         C124   1.436       .  S
C24          C25   1.401       .  A
C24          H29   1.084       .  S
C25          C26   1.400       .  A
C25         C111   1.439       .  S
C26          C27   1.400       .  A
C26          H30   1.084       .  S
C27          C28   1.399       .  A
C27         C125   1.436       .  S
C28          H31   1.085       .  S
O32          C35   1.264       .  A
O32        Cd169   2.464       .  S
C33         C130   1.435       .  S
C33          O38   1.264       .  A
C33         O174   1.264       .  A
O34          C40   1.265       .  A
O34         Cd37   2.477       .  S
C35         C127   1.433       .  S
C35         O175   1.263       .  A
C36          O41   1.266       .  A
C36         O171   1.264   1_554  A
C36         C102   1.480       .  S
Cd37         O44   2.455       .  S
Cd37         O43   2.461   1_554  S
Cd37         O42   2.468       .  S
Cd37         O41   2.474       .  S
Cd37        O164   2.464   1_554  S
Cd37        O170   2.465   1_554  S
Cd37        O171   2.469   1_554  S
O38        Cd169   2.464       .  S
O39         C168   1.264       .  A
O39        Cd169   2.468       .  S
C40         C112   1.434       .  S
C40          O44   1.263       .  A
O42         C165   1.264   1_554  A
O43         C167   1.263       .  A
C45          C46   1.399       .  A
C45          C50   1.400       .  A
C45          C96   1.435       .  S
C46          C47   1.399       .  A
C46          H51   1.085       .  S
C47          C48   1.400       .  A
C47         C100   1.436       .  S
C48          C49   1.401       .  A
C48          H52   1.084       .  S
C49          C50   1.400       .  A
C49          C97   1.436       .  S
C50          H53   1.085       .  S
O54          C57   1.264       .  A
O54        Cd191   2.459       .  S
C55          C91   1.432       .  S
C55          O60   1.264       .  A
C55         O196   1.263       .  A
O56          C62   1.265       .  A
O56         Cd59   2.467       .  S
C57          C94   1.432       .  S
C57         O197   1.263       .  A
C58          C99   1.431       .  S
C58          O63   1.265       .  A
C58          O61   1.262       .  A
Cd59         O65   2.455   1_554  S
Cd59         O64   2.457       .  S
Cd59         O63   2.469       .  S
Cd59         O61   2.448       .  S
Cd59        O186   2.459   1_554  S
Cd59        O198   2.467   1_554  S
Cd59        O192   2.460   1_554  S
O60        Cd191   2.460       .  S
C62         O198   1.265   1_554  A
C62         C105   1.479       .  S
O64         C187   1.263   1_554  A
O65         C189   1.263       .  A
O66         C194   1.265       .  A
O66        Cd191   2.467       .  S
C67          C68   1.401       .  A
C67          C72   1.400       .  A
C67          C92   1.437       .  S
C68          C69   1.400       .  A
C68          H73   1.084       .  S
C69         C334   1.400       .  A
C69          C90   1.438       .  S
C70          C71   1.400       .  A
C70         C333   1.400   1_545  A
C70          H74   1.084       .  S
C71         C336   1.400   1_545  A
C71          C93   1.437       .  S
C72         C335   1.400       .  A
C72          H75   1.085       .  S
O76          C79   1.263       .  A
O76         Cd81   2.458       .  S
C77          C98   1.431       .  S
C77          O86   1.263       .  A
C77          O82   1.263       .  A
O78          C84   1.264       .  A
O78         Cd81   2.474       .  S
C79          C95   1.429       .  S
C79          O87   1.263       .  A
C80          O85   1.266       .  A
C80          O83   1.265       .  A
C80         C117   1.476       .  S
Cd81         O88   2.455       .  S
Cd81         O87   2.452       .  S
Cd81         O85   2.456       .  S
Cd81         O83   2.460       .  S
Cd81        O350   2.459       .  S
Cd81        O346   2.457       .  S
O82        Cd345   2.457       .  S
C84          C89   1.434       .  S
C84          O88   1.262       .  A
O86        Cd345   2.459       .  S
C89          C90   1.205       .  T
C91          C92   1.204       .  T
C93          C94   1.204       .  T
C95          C96   1.203       .  T
C97          C98   1.204       .  T
C99         C100   1.204       .  T
C101        C102   1.405       .  A
C101        C106   1.398       .  A
C101        H107   1.083       .  S
C102        C103   1.406   1_554  A
C103        C104   1.399       .  A
C103        H108   1.083       .  S
C104        C105   1.405   1_656  A
C104        H109   1.083       .  S
C105        C106   1.405   1_455  A
C106        H110   1.083       .  S
C111        C112   1.205       .  T
C113        C118   1.396       .  A
C113        C378   1.404       .  A
C113        H119   1.083       .  S
C114        C115   1.405       .  A
C114        C377   1.404   1_545  A
C115        C116   1.397       .  A
C115        H120   1.083       .  S
C116        C381   1.405       .  A
C116        H121   1.083       .  S
C117        C118   1.404       .  A
C117        C380   1.405       .  A
C118        H122   1.083       .  S
C123        C124   1.203       .  T
C125        C126   1.203       .  T
C127        C128   1.205       .  T
C129        C130   1.206       .  T
C131        C132   1.205   1_565  T
C133        C398   1.401   1_545  A
C133        C138   1.400       .  A
C133        C260   1.438       .  S
C134        C397   1.401       .  A
C134        C135   1.401       .  A
C134        H139   1.085       .  S
C135        C136   1.402       .  A
C135        C261   1.440       .  S
C136        C401   1.402       .  A
C136        H140   1.084       .  S
C137        C400   1.402       .  A
C137        C138   1.400   1_565  A
C137        C263   1.439       .  S
C138        H141   1.085       .  S
O142        C145   1.263       .  A
O142       Cd147   2.455       .  S
C143        C258   1.430       .  S
C143        O152   1.263       .  A
C143        O148   1.263       .  A
O144        C150   1.265       .  A
O144       Cd147   2.471       .  S
C145        C255   1.431       .  S
C145        O153   1.263       .  A
C146        O151   1.265   1_545  A
C146        O149   1.265       .  A
C146        C246   1.475       .  S
Cd147       O154   2.453   1_545  S
Cd147       O153   2.458       .  S
Cd147       O416   2.454   1_545  S
Cd147       O412   2.459   1_545  S
Cd147       O151   2.457   1_545  S
Cd147       O149   2.457       .  S
O148       Cd411   2.459       .  S
C150        C264   1.434       .  S
C150        O154   1.263   1_545  A
O152       Cd411   2.454       .  S
C155        C156   1.401       .  A
C155        C160   1.399       .  A
C155        C256   1.436       .  S
C156        C157   1.401       .  A
C156        H161   1.084       .  S
C157        C158   1.400       .  A
C157        C243   1.439       .  S
C158        C159   1.400       .  A
C158        H162   1.084       .  S
C159        C160   1.399       .  A
C159        C257   1.436       .  S
C160        H163   1.085       .  S
O164        C167   1.264       .  A
C165        C262   1.435       .  S
C165        O170   1.264       .  A
O166        C172   1.265       .  A
O166       Cd169   2.477       .  S
C167        C259   1.433       .  S
C168        O173   1.266       .  A
C168        C234   1.480       .  S
Cd169       O176   2.454       .  S
Cd169       O175   2.461       .  S
Cd169       O174   2.468       .  S
Cd169       O173   2.474       .  S
C172        C244   1.434       .  S
C172        O176   1.263       .  A
C177        C178   1.399       .  A
C177        C182   1.400       .  A
C177        C228   1.435       .  S
C178        C179   1.399       .  A
C178        H183   1.085       .  S
C179        C180   1.400       .  A
C179        C232   1.436       .  S
C180        C181   1.401       .  A
C180        H184   1.084       .  S
C181        C182   1.400       .  A
C181        C229   1.436       .  S
C182        H185   1.085       .  S
O186        C189   1.264       .  A
C187        C223   1.432       .  S
C187        O192   1.264       .  A
O188        C194   1.265       .  A
O188       Cd191   2.466       .  S
C189        C226   1.431       .  S
C190        C231   1.431       .  S
C190        O195   1.265       .  A
C190        O193   1.262       .  A
Cd191       O197   2.455       .  S
Cd191       O196   2.456       .  S
Cd191       O195   2.469       .  S
Cd191       O193   2.448       .  S
C194        C237   1.479       .  S
C199        C200   1.401       .  A
C199        C204   1.400       .  A
C199        C224   1.437       .  S
C200        C201   1.400       .  A
C200        H205   1.084       .  S
C201        C466   1.400       .  A
C201        C222   1.438       .  S
C202        C465   1.400   1_545  A
C202        C203   1.400       .  A
C202        H206   1.084       .  S
C203        C468   1.400   1_545  A
C203        C225   1.437       .  S
C204        C467   1.400       .  A
C204        H207   1.085       .  S
O208        C211   1.263       .  A
O208       Cd213   2.458       .  S
C209        C230   1.432       .  S
C209        O218   1.263       .  A
C209        O214   1.263       .  A
O210        C216   1.264       .  A
O210       Cd213   2.474       .  S
C211        C227   1.430       .  S
C211        O219   1.263       .  A
C212        O217   1.266       .  A
C212        O215   1.265       .  A
C212        C249   1.476       .  S
Cd213       O220   2.454       .  S
Cd213       O219   2.453       .  S
Cd213       O482   2.460       .  S
Cd213       O478   2.457       .  S
Cd213       O217   2.456       .  S
Cd213       O215   2.459       .  S
O214       Cd477   2.457       .  S
C216        C221   1.434       .  S
C216        O220   1.262       .  A
O218       Cd477   2.460       .  S
C221        C222   1.205       .  T
C223        C224   1.204       .  T
C225        C226   1.204       .  T
C227        C228   1.203       .  T
C229        C230   1.204       .  T
C231        C232   1.204       .  T
C233        C234   1.405       .  A
C233        C238   1.398       .  A
C233        H239   1.083       .  S
C234        C235   1.406       .  A
C235        C236   1.399       .  A
C235        H240   1.083       .  S
C236        C237   1.405   1_655  A
C236        H241   1.083       .  S
C237        C238   1.405   1_455  A
C238        H242   1.083       .  S
C243        C244   1.205       .  T
C245        C510   1.404       .  A
C245        C250   1.396       .  A
C245        H251   1.083       .  S
C246        C509   1.404   1_545  A
C246        C247   1.405       .  A
C247        C248   1.397       .  A
C247        H252   1.083       .  S
C248        C513   1.405       .  A
C248        H253   1.083       .  S
C249        C512   1.405       .  A
C249        C250   1.404       .  A
C250        H254   1.083       .  S
C255        C256   1.203       .  T
C257        C258   1.203       .  T
C259        C260   1.205       .  T
C261        C262   1.206       .  T
C263        C264   1.205   1_565  T
C265        C270   1.400       .  A
C265        C392   1.438       .  S
C266        C267   1.401       .  A
C266        H271   1.085       .  S
C267        C268   1.402       .  A
C267        C393   1.440       .  S
C268        H272   1.084       .  S
C269        C270   1.400       .  A
C269        C395   1.439       .  S
C270        H273   1.085       .  S
O274        C277   1.263       .  A
O274       Cd279   2.455       .  S
C275        C390   1.430       .  S
C275        O284   1.263       .  A
C275        O280   1.263       .  A
O276        C282   1.264       .  A
O276       Cd279   2.471       .  S
C277        C387   1.431       .  S
C277        O285   1.263       .  A
C278        O283   1.265       .  A
C278        O281   1.265       .  A
C278        C378   1.475       .  S
Cd279       O286   2.453       .  S
Cd279       O285   2.458       .  S
Cd279       O283   2.457       .  S
Cd279       O281   2.458       .  S
C282        C396   1.434       .  S
C282        O286   1.263       .  A
C287        C288   1.401       .  A
C287        C292   1.399       .  A
C287        C388   1.436       .  S
C288        C289   1.401       .  A
C288        H293   1.084       .  S
C289        C290   1.400       .  A
C289        C375   1.439       .  S
C290        C291   1.400       .  A
C290        H294   1.084       .  S
C291        C292   1.399       .  A
C291        C389   1.436       .  S
C292        H295   1.085       .  S
O296        C299   1.264       .  A
O296       Cd433   2.464       .  S
C297        C394   1.435       .  S
C297        O438   1.264       .  A
C297        O302   1.264       .  A
O298        C304   1.265       .  A
O298       Cd301   2.477       .  S
C299        C391   1.433       .  S
C299        O439   1.263       .  A
C300        O305   1.266       .  A
C300        O435   1.264   1_554  A
C300        C366   1.480       .  S
Cd301       O428   2.464   1_554  S
Cd301       O308   2.455       .  S
Cd301       O307   2.461   1_554  S
Cd301       O306   2.468       .  S
Cd301       O434   2.465   1_554  S
Cd301       O305   2.474       .  S
Cd301       O435   2.469   1_554  S
O302       Cd433   2.464       .  S
O303        C432   1.264       .  A
O303       Cd433   2.468       .  S
C304        C376   1.434       .  S
C304        O308   1.263       .  A
O306        C429   1.264   1_554  A
O307        C431   1.263       .  A
C309        C310   1.399       .  A
C309        C314   1.400       .  A
C309        C360   1.435       .  S
C310        C311   1.399       .  A
C310        H315   1.085       .  S
C311        C312   1.400       .  A
C311        C364   1.436       .  S
C312        C313   1.401       .  A
C312        H316   1.084       .  S
C313        C314   1.400       .  A
C313        C361   1.436       .  S
C314        H317   1.085       .  S
O318        C321   1.264       .  A
O318       Cd455   2.459       .  S
C319        C355   1.432       .  S
C319        O460   1.263       .  A
C319        O324   1.264       .  A
O320        C326   1.265       .  A
O320       Cd323   2.467       .  S
C321        C358   1.432       .  S
C321        O461   1.263       .  A
C322        C363   1.431       .  S
C322        O327   1.265       .  A
C322        O325   1.262       .  A
Cd323       O450   2.459   1_554  S
Cd323       O462   2.467   1_554  S
Cd323       O329   2.455   1_554  S
Cd323       O328   2.457       .  S
Cd323       O456   2.460   1_554  S
Cd323       O327   2.469       .  S
Cd323       O325   2.448       .  S
O324       Cd455   2.460       .  S
C326        O462   1.265   1_554  A
C326        C369   1.479       .  S
O328        C451   1.263   1_554  A
O329        C453   1.263       .  A
O330        C458   1.265       .  A
O330       Cd455   2.467       .  S
C331        C332   1.401       .  A
C331        C336   1.400       .  A
C331        C356   1.437       .  S
C332        C333   1.400       .  A
C332        H337   1.084       .  S
C333        C354   1.438       .  S
C334        C335   1.400       .  A
C334        H338   1.084       .  S
C335        C357   1.437       .  S
C336        H339   1.085       .  S
O340        C343   1.263       .  A
O340       Cd345   2.458   1_565  S
C341        C362   1.431       .  S
C341        O350   1.263       .  A
C341        O346   1.263       .  A
O342        C348   1.264   1_545  A
O342       Cd345   2.474       .  S
C343        C359   1.429       .  S
C343        O351   1.263       .  A
C344        O349   1.266   1_545  A
C344        O347   1.265       .  A
C344        C381   1.476       .  S
Cd345       O352   2.455   1_545  S
Cd345       O351   2.452   1_545  S
Cd345       O349   2.456   1_545  S
Cd345       O347   2.460       .  S
C348        C353   1.434       .  S
C348        O352   1.262       .  A
C353        C354   1.205       .  T
C355        C356   1.204       .  T
C357        C358   1.204       .  T
C359        C360   1.203       .  T
C361        C362   1.204       .  T
C363        C364   1.204       .  T
C365        C366   1.405       .  A
C365        C370   1.398       .  A
C365        H371   1.083       .  S
C366        C367   1.406   1_554  A
C367        C368   1.399       .  A
C367        H372   1.083       .  S
C368        C369   1.405   1_656  A
C368        H373   1.083       .  S
C369        C370   1.405   1_455  A
C370        H374   1.083       .  S
C375        C376   1.205       .  T
C377        C382   1.396       .  A
C377        H383   1.083       .  S
C378        C379   1.405       .  A
C379        C380   1.397       .  A
C379        H384   1.083       .  S
C380        H385   1.083       .  S
C381        C382   1.404   1_545  A
C382        H386   1.083       .  S
C387        C388   1.203       .  T
C389        C390   1.203       .  T
C391        C392   1.205       .  T
C393        C394   1.206       .  T
C395        C396   1.205       .  T
C397        C402   1.400       .  A
C397        C524   1.438       .  S
C398        C399   1.401       .  A
C398        H403   1.085       .  S
C399        C400   1.402       .  A
C399        C525   1.440       .  S
C400        H404   1.084       .  S
C401        C402   1.400       .  A
C401        C527   1.439       .  S
C402        H405   1.085       .  S
O406        C409   1.263       .  A
O406       Cd411   2.455       .  S
C407        C522   1.430       .  S
C407        O416   1.263       .  A
C407        O412   1.263       .  A
O408        C414   1.265       .  A
O408       Cd411   2.471       .  S
C409        C519   1.431       .  S
C409        O417   1.263       .  A
C410        O415   1.265       .  A
C410        O413   1.265       .  A
C410        C510   1.475       .  S
Cd411       O418   2.453       .  S
Cd411       O417   2.458       .  S
Cd411       O415   2.457       .  S
Cd411       O413   2.457       .  S
C414        C528   1.434       .  S
C414        O418   1.263       .  A
C419        C420   1.401       .  A
C419        C424   1.399       .  A
C419        C520   1.436       .  S
C420        C421   1.401       .  A
C420        H425   1.084       .  S
C421        C422   1.400       .  A
C421        C507   1.439       .  S
C422        C423   1.400       .  A
C422        H426   1.084       .  S
C423        C424   1.399       .  A
C423        C521   1.436       .  S
C424        H427   1.085       .  S
O428        C431   1.264       .  A
C429        C526   1.435       .  S
C429        O434   1.264       .  A
O430        C436   1.265       .  A
O430       Cd433   2.477       .  S
C431        C523   1.433       .  S
C432        O437   1.266       .  A
C432        C498   1.480       .  S
Cd433       O440   2.454       .  S
Cd433       O439   2.461       .  S
Cd433       O438   2.468       .  S
Cd433       O437   2.474       .  S
C436        C508   1.434       .  S
C436        O440   1.263       .  A
C441        C442   1.399       .  A
C441        C446   1.400       .  A
C441        C492   1.435       .  S
C442        C443   1.399       .  A
C442        H447   1.085       .  S
C443        C444   1.400       .  A
C443        C496   1.436       .  S
C444        C445   1.401       .  A
C444        H448   1.084       .  S
C445        C446   1.400       .  A
C445        C493   1.436       .  S
C446        H449   1.085       .  S
O450        C453   1.264       .  A
C451        C487   1.432       .  S
C451        O456   1.264       .  A
O452        C458   1.265       .  A
O452       Cd455   2.466       .  S
C453        C490   1.431       .  S
C454        C495   1.431       .  S
C454        O459   1.265       .  A
C454        O457   1.262       .  A
Cd455       O461   2.455       .  S
Cd455       O460   2.456       .  S
Cd455       O459   2.469       .  S
Cd455       O457   2.448       .  S
C458        C501   1.479       .  S
C463        C464   1.401       .  A
C463        C468   1.400       .  A
C463        C488   1.437       .  S
C464        C465   1.400       .  A
C464        H469   1.084       .  S
C465        C486   1.438       .  S
C466        C467   1.400       .  A
C466        H470   1.084       .  S
C467        C489   1.437       .  S
C468        H471   1.085       .  S
O472        C475   1.263       .  A
O472       Cd477   2.458   1_565  S
C473        C494   1.432       .  S
C473        O482   1.263       .  A
C473        O478   1.263       .  A
O474        C480   1.264   1_545  A
O474       Cd477   2.474       .  S
C475        C491   1.430       .  S
C475        O483   1.263       .  A
C476        O481   1.266   1_545  A
C476        O479   1.265       .  A
C476        C513   1.476       .  S
Cd477       O484   2.454   1_545  S
Cd477       O483   2.453   1_545  S
Cd477       O481   2.456   1_545  S
Cd477       O479   2.459       .  S
C480        C485   1.434       .  S
C480        O484   1.262       .  A
C485        C486   1.205       .  T
C487        C488   1.204       .  T
C489        C490   1.204       .  T
C491        C492   1.203       .  T
C493        C494   1.204       .  T
C495        C496   1.204       .  T
C497        C498   1.405       .  A
C497        C502   1.398       .  A
C497        H503   1.083       .  S
C498        C499   1.406       .  A
C499        C500   1.399       .  A
C499        H504   1.083       .  S
C500        C501   1.405   1_655  A
C500        H505   1.083       .  S
C501        C502   1.405   1_455  A
C502        H506   1.083       .  S
C507        C508   1.205       .  T
C509        C514   1.396       .  A
C509        H515   1.083       .  S
C510        C511   1.405       .  A
C511        C512   1.397       .  A
C511        H516   1.083       .  S
C512        H517   1.083       .  S
C513        C514   1.404   1_545  A
C514        H518   1.083       .  S
C519        C520   1.203       .  T
C521        C522   1.203       .  T
C523        C524   1.205       .  T
C525        C526   1.206       .  T
C527        C528   1.205       .  T
