geometry optimzed in LAMMPS
_audit_creation_date              2020-11-30 
_audit_creation_method            'lammps2cif' 
_symmetry_space_group_name_H-M    'P1' 
_symmetry_Int_Tables_number       1 
_symmetry_cell_setting            triclinic 
loop_ 
_symmetry_equiv_pos_as_xyz 
  x,y,z 
_cell_length_a                    42.67834416 
_cell_length_b                    42.67809768006314 
_cell_length_c                    28.475147959899623 
_cell_angle_alpha                 89.99534305803297 
_cell_angle_beta                  90.00444284961551 
_cell_angle_gamma                 120.00808378600513 
loop_ 
_atom_site_label 
_atom_site_type_symbol 
_atom_site_fract_x 
_atom_site_fract_y 
_atom_site_fract_z 
_atom_site_charge 
O1          O  0.17482436  0.04122657  0.33345055    -0.85300
O2          O  0.24788527  0.08058226  0.31158380    -0.82300
C3          C  0.27954174  0.10728493  0.30644809     0.98400
O4          O  0.29110222  0.13440841  0.33292185    -0.82400
O5          O  0.25363300  0.17007317  0.31497203    -0.85000
C6          C  0.22643802  0.17394303  0.30806729     1.02700
O7          O  0.19811143  0.15656692  0.33227484    -0.77800
O8          O  0.16213569  0.08343639  0.31511408    -0.78000
C9          C  0.15713329  0.05190381  0.30953488     1.02600
O10         O  0.19124113  0.05017830  0.43154837    -0.85300
O11         O  0.26495488  0.08321259  0.40876367    -0.82400
C12         C  0.28455564  0.10982957  0.43493117     0.98200
O13         O  0.28244519  0.13841759  0.43206020    -0.82400
O14         O  0.24971936  0.18008217  0.41261061    -0.85000
C15         C  0.22217458  0.17362519  0.43630412     1.02700
O16         O  0.19318804  0.14363634  0.43174080    -0.77800
O17         O  0.15376776  0.06951266  0.41361313    -0.78000
C18         C  0.16139054  0.04931491  0.43772913     1.02600
Cr19       Cr  0.21998505  0.06803713  0.37159076     1.93700
Cr20       Cr  0.26497910  0.15181054  0.37340937     1.93200
Cr21       Cr  0.18079303  0.11299635  0.37337138     1.39100
O22         O  0.22185642  0.11098854  0.37335256    -1.23000
C23         C  0.22534074  0.20337106  0.46753097     0.03200
C24         C  0.19710659  0.20026428  0.49669955    -0.13000
C25         C  0.20155543  0.23043912  0.02306706     0.00700
C26         C  0.23448371  0.26321420  0.02065591    -0.11500
C27         C  0.26322742  0.26650980  0.49317043     0.03200
C28         C  0.25809605  0.23677993  0.46638180    -0.10900
H29         H  0.17185482  0.17481945  0.49865214     0.08800
H30         H  0.23838912  0.28570336  0.04245268     0.06300
H31         H  0.27998080  0.24007158  0.44386171     0.06100
C32         C  0.03600623  0.00046704  0.00139972     0.03200
C33         C  0.03554066  0.03314965  0.99714940    -0.13000
C34         C  0.00273317  0.03368840  0.99654261     0.00700
C35         C  0.30074641  0.33444839  0.99417721    -0.11500
C36         C  0.29895330  0.30067690  0.49317166     0.03200
C37         C  0.33140146  0.29960424  0.49265022    -0.10900
H38         H  0.06090240  0.05842573  0.99472120     0.08800
H39         H  0.27593627  0.33552596  0.99467257     0.06300
H40         H  0.33039331  0.27374760  0.49208645     0.06100
C41         C  0.31072168  0.10634770  0.46712591     0.03200
C42         C  0.31130296  0.07336374  0.46747151    -0.13000
C43         C  0.33641627  0.06898538  0.49470566     0.00700
C44         C  0.02833049  0.09828303  0.02149404    -0.11500
C45         C  0.02808489  0.13098971  0.02311203     0.03200
C46         C  0.33566612  0.13493338  0.99610697    -0.10900
H47         H  0.29240158  0.05091378  0.44591062     0.08800
H48         H  0.04714893  0.09496692  0.04359970     0.06300
H49         H  0.33541703  0.16017419  0.99727397     0.06100
C50         C  0.10245285  0.30502878  0.02305234     0.03200
C51         C  0.13255507  0.33086207  0.49671851    -0.13000
C52         C  0.13313249  0.02400408  0.47170961     0.00700
C53         C  0.09979941  0.02364453  0.47253373    -0.11500
C54         C  0.06606921  0.33017592  0.99288761     0.03200
C55         C  0.06947790  0.30479587  0.02036213    -0.10900
H56         H  0.15806626  0.33119690  0.49868322     0.08800
H57         H  0.09551929  0.04119628  0.44923290     0.06300
H58         H  0.04691745  0.28597875  0.04189706     0.06100
O59         O  0.05004755  0.19012230  0.18073566    -0.85300
O60         O  0.08304706  0.26403935  0.16035576    -0.82300
C61         C  0.11020175  0.28405488  0.18560730     0.98200
O62         O  0.13905336  0.28271076  0.18128049    -0.82400
O63         O  0.18032276  0.25003934  0.16056656    -0.85000
C64         C  0.17336564  0.22273598  0.18538747     1.02700
O65         O  0.14309571  0.19393021  0.18113129    -0.77800
O66         O  0.06903805  0.15285871  0.16071488    -0.78000
C67         C  0.04875126  0.15997155  0.18538951     1.02600
O68         O  0.04151627  0.17547633  0.08177548    -0.85300
O69         O  0.07881308  0.24845053  0.06246216    -0.82400
C70         C  0.10527741  0.28006696  0.05684217     0.98200
O71         O  0.13307313  0.29157583  0.08228079    -0.82400
O72         O  0.16901643  0.25442577  0.06279445    -0.85000
C73         C  0.17391271  0.22780487  0.05690383     1.02700
O74         O  0.15752196  0.19993661  0.08214718    -0.77800
O75         O  0.08457274  0.16403729  0.06277923    -0.78000
C76         C  0.05303365  0.15903213  0.05671403     1.02600
Cr77       Cr  0.06755650  0.21984067  0.12159332     1.93700
Cr78       Cr  0.15149008  0.26551135  0.12196341     1.93200
Cr79       Cr  0.11322840  0.18156403  0.12194094     1.39100
O80         O  0.11075702  0.22229106  0.12237512    -1.23000
C81         C  0.22907122  0.20167687  0.27414422     0.03200
C82         C  0.19918245  0.19743588  0.24710745    -0.13000
C83         C  0.20276439  0.22578580  0.21754721     0.00700
C84         C  0.23632773  0.25845675  0.21696343    -0.11500
C85         C  0.26580122  0.26322309  0.24418363     0.03200
C86         C  0.26199194  0.23444529  0.27192023    -0.10900
H87         H  0.17364716  0.17226416  0.24875057     0.08800
H88         H  0.23996169  0.28050637  0.19450958     0.06300
H89         H  0.28431689  0.23820006  0.29396158     0.06100
C90         C  0.99831640  0.03403185  0.24916919     0.03200
C91         C  0.29973348  0.33132758  0.24495968    -0.13000
C92         C  0.30032435  0.29865135  0.24460406     0.00700
C93         C  0.33393675  0.29996407  0.24539544    -0.11500
C94         C  0.03094803  0.00055399  0.25107794     0.03200
C95         C  0.03091497  0.03344568  0.24810400    -0.10900
H96         H  0.27402757  0.33064119  0.24458477     0.08800
H97         H  0.33462570  0.27494628  0.24531434     0.06300
H98         H  0.05635294  0.05861749  0.24536422     0.06100
C99         C  0.30499990  0.10486863  0.27346151     0.03200
C100        C  0.30603972  0.07271923  0.27394780    -0.13000
C101        C  0.33134605  0.06874391  0.24738413     0.00700
C102        C  0.02268141  0.09782590  0.21947455    -0.11500
C103        C  0.02269626  0.13097022  0.21804872     0.03200
C104        C  0.99712094  0.13446258  0.24597138    -0.10900
H105        H  0.28789215  0.05111320  0.29721420     0.08800
H106        H  0.04152940  0.09418028  0.19796558     0.06300
H107        H  0.99670602  0.15963000  0.24602853     0.06100
C108        C  0.10691333  0.30987269  0.21840640     0.03200
C109        C  0.07383517  0.30990585  0.21890201    -0.13000
C110        C  0.06889866  0.33443640  0.24621741     0.00700
C111        C  0.09534538  0.02634643  0.27644283    -0.11500
C112        C  0.12803772  0.02608291  0.27770956     0.03200
C113        C  0.13548165  0.33513473  0.24723738    -0.10900
H114        H  0.05167709  0.29112861  0.19687041     0.08800
H115        H  0.09253106  0.04603214  0.29732325     0.06300
H116        H  0.16098536  0.33540174  0.24803216     0.06100
O117        O  0.17479212  0.04122133  0.83344558    -0.85300
O118        O  0.24785364  0.08057771  0.81160825    -0.82300
C119        C  0.27951149  0.10728068  0.80648508     0.98400
O120        O  0.29106970  0.13439456  0.83297405    -0.82400
O121        O  0.25359555  0.17004947  0.81500586    -0.85000
C122        C  0.22640878  0.17393452  0.80811454     1.02700
O123        O  0.19808237  0.15656330  0.83232279    -0.77800
O124        O  0.16212392  0.08344442  0.81510213    -0.78000
C125        C  0.15712107  0.05191287  0.80951311     1.02600
O126        O  0.19118646  0.05015253  0.93155369    -0.85300
O127        O  0.26490406  0.08319036  0.90879829    -0.82400
C128        C  0.28450414  0.10980628  0.93496907     0.98200
O129        O  0.28238922  0.13839207  0.93210488    -0.82400
O130        O  0.24965711  0.18004528  0.91262932    -0.85000
C131        C  0.22211193  0.17359015  0.93631701     1.02700
O132        O  0.19312786  0.14359653  0.93176764    -0.77800
O133        O  0.15370544  0.06947222  0.91359393    -0.78000
C134        C  0.16133155  0.04928201  0.93772226     1.02600
Cr135      Cr  0.21994198  0.06801906  0.87160709     1.93700
Cr136      Cr  0.26493331  0.15178683  0.87344687     1.93200
Cr137      Cr  0.18074911  0.11297503  0.87338422     1.39100
O138        O  0.22181209  0.11096721  0.87337825    -1.23000
C139        C  0.22528125  0.20334960  0.96750999     0.03200
C140        C  0.19705299  0.20025910  0.99666903    -0.13000
C141        C  0.20159929  0.23043217  0.52312295     0.00700
C142        C  0.23452661  0.26320933  0.52073039    -0.11500
C143        C  0.26318038  0.26649788  0.99310186     0.03200
C144        C  0.25803878  0.23675594  0.96633638    -0.10900
H145        H  0.17180062  0.17481582  0.99864024     0.08800
H146        H  0.23842629  0.28569055  0.54253973     0.06300
H147        H  0.27991999  0.24003564  0.94381859     0.06100
C148        C  0.03604434  0.00047154  0.50136461     0.03200
C149        C  0.03558000  0.03315606  0.49714404    -0.13000
C150        C  0.00277301  0.03369487  0.49655915     0.00700
C151        C  0.30077246  0.33446393  0.49426222    -0.11500
C152        C  0.29891439  0.30065597  0.99309133     0.03200
C153        C  0.33135714  0.29957030  0.99257004    -0.10900
H154        H  0.06094118  0.05843333  0.49472202     0.08800
H155        H  0.27595711  0.33553164  0.49475699     0.06300
H156        H  0.33034103  0.27370989  0.99201433     0.06100
C157        C  0.31068077  0.10632915  0.96715023     0.03200
C158        C  0.31125968  0.07334423  0.96749423    -0.13000
C159        C  0.33639070  0.06897345  0.99469867     0.00700
C160        C  0.02835996  0.09828391  0.52152818    -0.11500
C161        C  0.02811037  0.13098889  0.52314216     0.03200
C162        C  0.33568771  0.13494412  0.49610588    -0.10900
H163        H  0.29234382  0.05088848  0.94595277     0.08800
H164        H  0.04717504  0.09496690  0.54364001     0.06300
H165        H  0.33543793  0.16018471  0.49726932     0.06100
C166        C  0.10247108  0.30505844  0.52311262     0.03200
C167        C  0.13254270  0.33083029  0.99666345    -0.13000
C168        C  0.13307880  0.02397776  0.97171213     0.00700
C169        C  0.09974752  0.02361972  0.97254440    -0.11500
C170        C  0.06609203  0.33023320  0.49301961     0.03200
C171        C  0.06950225  0.30483938  0.52046164    -0.10900
H172        H  0.15806029  0.33118069  0.99866338     0.08800
H173        H  0.09545979  0.04115951  0.94923030     0.06300
H174        H  0.04694526  0.28601599  0.54199647     0.06100
O175        O  0.05005161  0.19012536  0.68075483    -0.85300
O176        O  0.08305196  0.26403678  0.66037438    -0.82300
C177        C  0.11020633  0.28405961  0.68561904     0.98200
O178        O  0.13906291  0.28272388  0.68129176    -0.82400
O179        O  0.18032469  0.25003883  0.66061183    -0.85000
C180        C  0.17336226  0.22273584  0.68543500     1.02700
O181        O  0.14309521  0.19392908  0.68117238    -0.77800
O182        O  0.06904118  0.15285878  0.66075062    -0.78000
C183        C  0.04875267  0.15997440  0.68541855     1.02600
O184        O  0.04153481  0.17548210  0.58179165    -0.85300
O185        O  0.07882946  0.24846431  0.56248768    -0.82400
C186        C  0.10529782  0.28007985  0.55687102     0.98200
O187        O  0.13310113  0.29157670  0.58229115    -0.82400
O188        O  0.16904718  0.25441764  0.56283229    -0.85000
C189        C  0.17394232  0.22779447  0.55694802     1.02700
O190        O  0.15753863  0.19992461  0.58218758    -0.77800
O191        O  0.08459055  0.16403611  0.56281550    -0.78000
C192        C  0.05305358  0.15903292  0.55674248     1.02600
Cr193      Cr  0.06756905  0.21984436  0.62161240     1.93700
Cr194      Cr  0.15150639  0.26551153  0.62198832     1.93200
Cr195      Cr  0.11323798  0.18156239  0.62197788     1.39100
O196        O  0.11077005  0.22229281  0.62239990    -1.23000
C197        C  0.22904962  0.20167721  0.77420729     0.03200
C198        C  0.19916642  0.19743551  0.74716123    -0.13000
C199        C  0.20275226  0.22578745  0.71760610     0.00700
C200        C  0.23631232  0.25846042  0.71703400    -0.11500
C201        C  0.26577994  0.26322920  0.74426698     0.03200
C202        C  0.26196789  0.23444977  0.77200362    -0.10900
H203        H  0.17363324  0.17226064  0.74879085     0.08800
H204        H  0.23994932  0.28050907  0.69457610     0.06300
H205        H  0.28428828  0.23820331  0.79405353     0.06100
C206        C  0.99830715  0.03404128  0.74924646     0.03200
C207        C  0.29971479  0.33133564  0.74499906    -0.13000
C208        C  0.30030309  0.29865711  0.74467991     0.00700
C209        C  0.33391384  0.29996740  0.74547353    -0.11500
C210        C  0.03093459  0.00055737  0.75112207     0.03200
C211        C  0.03090280  0.03345054  0.74815785    -0.10900
H212        H  0.27400952  0.33065036  0.74461981     0.08800
H213        H  0.33460200  0.27494910  0.74541502     0.06300
H214        H  0.05634088  0.05862025  0.74540078     0.06100
C215        C  0.30497337  0.10487212  0.77349818     0.03200
C216        C  0.30601057  0.07272164  0.77397700    -0.13000
C217        C  0.33131877  0.06874897  0.74741557     0.00700
C218        C  0.02268060  0.09783508  0.71953312    -0.11500
C219        C  0.02269201  0.13097729  0.71808277     0.03200
C220        C  0.99710578  0.13446998  0.74598350    -0.10900
H221        H  0.28786036  0.05111297  0.79723825     0.08800
H222        H  0.04153526  0.09418941  0.69803910     0.06300
H223        H  0.99668716  0.15963547  0.74602375     0.06100
C224        C  0.10690812  0.30987374  0.71841223     0.03200
C225        C  0.07381998  0.30988723  0.71891923    -0.13000
C226        C  0.06887740  0.33442083  0.74621999     0.00700
C227        C  0.09533784  0.02635595  0.77643486    -0.11500
C228        C  0.12803521  0.02610484  0.77767204     0.03200
C229        C  0.13547777  0.33515354  0.74722145    -0.10900
H230        H  0.05166056  0.29109565  0.69690088     0.08800
H231        H  0.09252230  0.04603288  0.79733393     0.06300
H232        H  0.16098863  0.33543478  0.74800769     0.06100
O233        O  0.17568552  0.37475210  0.33327337    -0.85300
O234        O  0.24901812  0.41178238  0.31545390    -0.82300
C235        C  0.28049639  0.43847412  0.30966151     0.98400
O236        O  0.29162570  0.46661649  0.33429432    -0.82400
O237        O  0.25499198  0.50319955  0.31485797    -0.85000
C238        C  0.22835194  0.50801106  0.30840807     1.02700
O239        O  0.20000330  0.49092585  0.33255354    -0.77800
O240        O  0.16426381  0.41764788  0.31319016    -0.78000
C241        C  0.15921298  0.38600390  0.30778673     1.02600
O242        O  0.18922147  0.38353429  0.43239715    -0.85300
O243        O  0.26334587  0.41614360  0.41345966    -0.82400
C244        C  0.28392667  0.44350668  0.43801355     0.98200
O245        O  0.28286906  0.47247573  0.43330067    -0.82400
O246        O  0.24997799  0.51348330  0.41274645    -0.85000
C247        C  0.22230295  0.50660705  0.43663467     1.02700
O248        O  0.19329636  0.47661078  0.43139986    -0.77800
O249        O  0.15232228  0.40255037  0.41080092    -0.78000
C250        C  0.15897663  0.38216364  0.43589176     1.02600
Cr251      Cr  0.21964568  0.40084633  0.37384068     1.93700
Cr252      Cr  0.26556704  0.48495290  0.37394932     1.93200
Cr253      Cr  0.18145726  0.44663651  0.37230826     1.39100
O254        O  0.22224050  0.44417233  0.37382239    -1.23000
C255        C  0.22523023  0.53582880  0.46897818     0.03200
C256        C  0.19644439  0.53229138  0.49756533    -0.13000
C257        C  0.20053149  0.56201679  0.02468746     0.00700
C258        C  0.23346475  0.59455584  0.02386140    -0.11500
C259        C  0.26265191  0.59847805  0.49701028     0.03200
C260        C  0.25818039  0.56921083  0.46954398    -0.10900
H261        H  0.17108056  0.50691109  0.49845297     0.08800
H262        H  0.23698101  0.61647283  0.04655473     0.06300
H263        H  0.28055600  0.57286869  0.44776251     0.06100
C264        C  0.03183754  0.33158825  0.99299913     0.03200
C265        C  0.03293615  0.36510773  0.99420196    -0.13000
C266        C  0.00091860  0.36687278  0.99465779     0.00700
C267        C  0.29830172  0.66626462  0.00158752    -0.11500
C268        C  0.29781646  0.63315014  0.49856254     0.03200
C269        C  0.33083659  0.63335164  0.49853675    -0.10900
H270        H  0.05881619  0.38993833  0.99484441     0.08800
H271        H  0.27299151  0.66635275  0.00159904     0.06300
H272        H  0.33080840  0.60800729  0.49643486     0.06100
C273        C  0.31013079  0.44025220  0.47025771     0.03200
C274        C  0.31098427  0.40763156  0.46896258    -0.13000
C275        C  0.33552487  0.40245350  0.49583472     0.00700
C276        C  0.02722819  0.43084768  0.02394395    -0.11500
C277        C  0.02717385  0.46368796  0.02694337     0.03200
C278        C  0.33486667  0.46823807  0.00024174    -0.10900
H279        H  0.29270266  0.38590724  0.44600100     0.08800
H280        H  0.04580565  0.42678783  0.04555068     0.06300
H281        H  0.33456223  0.49341903  0.00236269     0.06100
C282        C  0.10162373  0.63966399  0.02876232     0.03200
C283        C  0.13140393  0.66612677  0.50250439    -0.13000
C284        C  0.12927717  0.35582537  0.46740369     0.00700
C285        C  0.09583243  0.35509545  0.46638074    -0.11500
C286        C  0.06537687  0.66599396  0.00192688     0.03200
C287        C  0.06878962  0.63970781  0.02748367    -0.10900
H288        H  0.15682336  0.66620226  0.50277932     0.08800
H289        H  0.09252265  0.37379879  0.44408993     0.06300
H290        H  0.04620616  0.62013930  0.04835850     0.06100
O291        O  0.05018482  0.52211588  0.18442317    -0.85300
O292        O  0.08375928  0.59627710  0.16601548    -0.82300
C293        C  0.11172267  0.61711935  0.18947414     0.98200
O294        O  0.14085687  0.61659195  0.18313088    -0.82400
O295        O  0.18213117  0.58409638  0.16155706    -0.85000
C296        C  0.17549670  0.55738573  0.18732664     1.02700
O297        O  0.14520319  0.52840327  0.18387536    -0.77800
O298        O  0.07088494  0.48608790  0.16572316    -0.78000
C299        C  0.04972128  0.49240028  0.18945768     1.02600
O300        O  0.04170681  0.50903146  0.08493383    -0.85300
O301        O  0.07814298  0.58246301  0.06750080    -0.82400
C302        C  0.10480649  0.61389242  0.06111799     0.98200
O303        O  0.13338963  0.62465666  0.08462103    -0.82400
O304        O  0.16805808  0.58621557  0.06398492    -0.85000
C305        C  0.17288422  0.55949394  0.05832772     1.02700
O306        O  0.15712618  0.53209974  0.08436414    -0.77800
O307        O  0.08358598  0.49531473  0.06773120    -0.78000
C308        C  0.05247259  0.49139368  0.06093811     1.02600
Cr309      Cr  0.06782333  0.55276857  0.12586242     1.93700
Cr310      Cr  0.15204203  0.59850362  0.12361173     1.93200
Cr311      Cr  0.11389014  0.51453409  0.12563512     1.39100
O312        O  0.11116217  0.55523252  0.12547418    -1.23000
C313        C  0.23143963  0.53638793  0.27536057     0.03200
C314        C  0.20177578  0.53235979  0.24819386    -0.13000
C315        C  0.20508300  0.56114310  0.21987917     0.00700
C316        C  0.23830646  0.59442526  0.22102128    -0.11500
C317        C  0.26784681  0.59886180  0.24820453     0.03200
C318        C  0.26407959  0.56943020  0.27456812    -0.10900
H319        H  0.17651380  0.50686583  0.24873071     0.08800
H320        H  0.24162700  0.61697180  0.19985930     0.06300
H321        H  0.28622780  0.57280023  0.29668993     0.06100
C322        C  0.99869817  0.36495696  0.24604135     0.03200
C323        C  0.30308014  0.66726287  0.25316718    -0.13000
C324        C  0.30276105  0.63414095  0.24979835     0.00700
C325        C  0.33603456  0.63457957  0.24943553    -0.11500
C326        C  0.03334765  0.33332381  0.24621116     0.03200
C327        C  0.03197292  0.36556438  0.24665565    -0.10900
H328        H  0.27771360  0.66727879  0.25329401     0.08800
H329        H  0.33602413  0.60925972  0.24697750     0.06300
H330        H  0.05695168  0.39129931  0.24738917     0.06100
C331        C  0.30577478  0.43572064  0.27639986     0.03200
C332        C  0.30562580  0.40278384  0.27387193    -0.13000
C333        C  0.33110438  0.39941472  0.24658384     0.00700
C334        C  0.02286374  0.42933504  0.22032296    -0.11500
C335        C  0.02349810  0.46275527  0.22118855     0.03200
C336        C  0.99830760  0.46589555  0.25015260    -0.10900
H337        H  0.28664804  0.38015349  0.29518434     0.08800
H338        H  0.04162136  0.42606782  0.19810219     0.06300
H339        H  0.99850445  0.49134449  0.25192003     0.06100
C340        C  0.10888989  0.64281419  0.22293189     0.03200
C341        C  0.07605782  0.64347879  0.22353290    -0.13000
C342        C  0.07106075  0.66712644  0.25254961     0.00700
C343        C  0.09790706  0.35995317  0.27332438    -0.11500
C344        C  0.13109591  0.36055861  0.27451329     0.03200
C345        C  0.13755779  0.66706172  0.25259553    -0.10900
H346        H  0.05415719  0.62588617  0.20033291     0.08800
H347        H  0.09415618  0.37847413  0.29546272     0.06300
H348        H  0.16291079  0.66702647  0.25265656     0.06100
O349        O  0.17568093  0.37476750  0.83322981    -0.85300
O350        O  0.24901000  0.41181497  0.81539389    -0.82300
C351        C  0.28049477  0.43850136  0.80962661     0.98400
O352        O  0.29162671  0.46662929  0.83429053    -0.82400
O353        O  0.25498154  0.50320216  0.81486427    -0.85000
C354        C  0.22834526  0.50802129  0.80842889     1.02700
O355        O  0.19999783  0.49093784  0.83257789    -0.77800
O356        O  0.16425721  0.41766536  0.81316513    -0.78000
C357        C  0.15920433  0.38602142  0.80775536     1.02600
O358        O  0.18922181  0.38351480  0.93234473    -0.85300
O359        O  0.26334924  0.41614652  0.91339934    -0.82400
C360        C  0.28391419  0.44349788  0.93798291     0.98200
O361        O  0.28284357  0.47246189  0.93329930    -0.82400
O362        O  0.24995145  0.51346860  0.91274682    -0.85000
C363        C  0.22227547  0.50658307  0.93663830     1.02700
O364        O  0.19327637  0.47658011  0.93141030    -0.77800
O365        O  0.15231823  0.40252864  0.91075940    -0.78000
C366        C  0.15897165  0.38213317  0.93583323     1.02600
Cr367      Cr  0.21964379  0.40085157  0.87378947     1.93700
Cr368      Cr  0.26555449  0.48495198  0.87394861     1.93200
Cr369      Cr  0.18144651  0.44663162  0.87229969     1.39100
O370        O  0.22223112  0.44417167  0.87380366    -1.23000
C371        C  0.22519151  0.53580516  0.96896745     0.03200
C372        C  0.19640573  0.53226066  0.99755789    -0.13000
C373        C  0.20058014  0.56204348  0.52471549     0.00700
C374        C  0.23352367  0.59457151  0.52391077    -0.11500
C375        C  0.26259538  0.59846642  0.99696440     0.03200
C376        C  0.25813121  0.56919651  0.96951148    -0.10900
H377        H  0.17105017  0.50687261  0.99846345     0.08800
H378        H  0.23704682  0.61648552  0.54661536     0.06300
H379        H  0.28050666  0.57285807  0.94772701     0.06100
C380        C  0.03184848  0.33162503  0.49313945     0.03200
C381        C  0.03292529  0.36513285  0.49436586    -0.13000
C382        C  0.00089604  0.36687797  0.49481590     0.00700
C383        C  0.29834529  0.66627366  0.50160834    -0.11500
C384        C  0.29776239  0.63313605  0.99852619     0.03200
C385        C  0.33077717  0.63332668  0.99850195    -0.10900
H386        H  0.05879903  0.38997007  0.49502110     0.08800
H387        H  0.27303121  0.66635433  0.50161933     0.06300
H388        H  0.33074199  0.60797925  0.99639149     0.06100
C389        C  0.31011610  0.44023708  0.97022357     0.03200
C390        C  0.31097850  0.40762242  0.96889896    -0.13000
C391        C  0.33551328  0.40243517  0.99576899     0.00700
C392        C  0.02720886  0.43086111  0.52406263    -0.11500
C393        C  0.02718224  0.46371560  0.52700845     0.03200
C394        C  0.33489407  0.46826646  0.50024932    -0.10900
H395        H  0.29270531  0.38590763  0.94591935     0.08800
H396        H  0.04578556  0.42680642  0.54567838     0.06300
H397        H  0.33459717  0.49345208  0.50234860     0.06100
C398        C  0.10164063  0.63966654  0.52876367     0.03200
C399        C  0.13138990  0.66613507  0.00251915    -0.13000
C400        C  0.12926301  0.35577616  0.96731572     0.00700
C401        C  0.09581010  0.35502562  0.96624482    -0.11500
C402        C  0.06539306  0.66599067  0.50191108     0.03200
C403        C  0.06880789  0.63971266  0.52748371    -0.10900
H404        H  0.15680954  0.66621090  0.00279089     0.08800
H405        H  0.09249704  0.37371319  0.94392587     0.06300
H406        H  0.04622744  0.62015378  0.54837128     0.06100
O407        O  0.05023290  0.52213716  0.68447001    -0.85300
O408        O  0.08377492  0.59629215  0.66605556    -0.82300
C409        C  0.11173753  0.61714276  0.68950376     0.98200
O410        O  0.14087809  0.61662921  0.68314836    -0.82400
O411        O  0.18214335  0.58412129  0.66159845    -0.85000
C412        C  0.17550902  0.55740082  0.68734754     1.02700
O413        O  0.14522236  0.52841272  0.68387673    -0.77800
O414        O  0.07090330  0.48609656  0.66570728    -0.78000
C415        C  0.04974973  0.49240897  0.68946488     1.02600
O416        O  0.04173001  0.50905359  0.58499349    -0.85300
O417        O  0.07815453  0.58248351  0.56754932    -0.82400
C418        C  0.10482454  0.61390539  0.56113763     0.98200
O419        O  0.13341653  0.62467255  0.58462273    -0.82400
O420        O  0.16810881  0.58624982  0.56401597    -0.85000
C421        C  0.17292924  0.55952475  0.55835164     1.02700
O422        O  0.15715829  0.53212541  0.58437518    -0.77800
O423        O  0.08361991  0.49536694  0.56772487    -0.78000
C424        C  0.05249697  0.49143128  0.56097048     1.02600
Cr425      Cr  0.06785003  0.55278992  0.62590852     1.93700
Cr426      Cr  0.15207008  0.59853247  0.62363511     1.93200
Cr427      Cr  0.11391699  0.51455960  0.62563513     1.39100
O428        O  0.11119152  0.55525984  0.62549664    -1.23000
C429        C  0.23143654  0.53640138  0.77539072     0.03200
C430        C  0.20177568  0.53237414  0.74822175    -0.13000
C431        C  0.20508997  0.56115552  0.71990031     0.00700
C432        C  0.23831569  0.59443384  0.72103525    -0.11500
C433        C  0.26785105  0.59886966  0.74822478     0.03200
C434        C  0.26407908  0.56944089  0.77459802    -0.10900
H435        H  0.17651156  0.50688219  0.74876051     0.08800
H436        H  0.24164230  0.61697863  0.69986416     0.06300
H437        H  0.28622586  0.57281026  0.79672250     0.06100
C438        C  0.99866678  0.36492979  0.74595408     0.03200
C439        C  0.30308240  0.66726774  0.75318973    -0.13000
C440        C  0.30276383  0.63414638  0.74981454     0.00700
C441        C  0.33603504  0.63458234  0.74944446    -0.11500
C442        C  0.03332281  0.33330211  0.74619564     0.03200
C443        C  0.03194295  0.36554024  0.74660953    -0.10900
H444        H  0.27771538  0.66728274  0.75331939     0.08800
H445        H  0.33602233  0.60926143  0.74698307     0.06300
H446        H  0.05691978  0.39127634  0.74735224     0.06100
C447        C  0.30577585  0.43574778  0.77636888     0.03200
C448        C  0.30561502  0.40280555  0.77383984    -0.13000
C449        C  0.33109300  0.39942773  0.74656256     0.00700
C450        C  0.02285465  0.42932031  0.72026700    -0.11500
C451        C  0.02350868  0.46274984  0.72116464     0.03200
C452        C  0.99831556  0.46588825  0.75012446    -0.10900
H453        H  0.28662997  0.38017780  0.79515006     0.08800
H454        H  0.04161903  0.42605777  0.69805405     0.06300
H455        H  0.99853054  0.49134530  0.75191886     0.06100
C456        C  0.10889108  0.64282712  0.72296573     0.03200
C457        C  0.07605403  0.64348467  0.72356312    -0.13000
C458        C  0.07104768  0.66712542  0.75258394     0.00700
C459        C  0.09788776  0.35995424  0.77331119    -0.11500
C460        C  0.13108473  0.36057488  0.77448976     0.03200
C461        C  0.13755093  0.66707146  0.75263747    -0.10900
H462        H  0.05415847  0.62589425  0.70035530     0.08800
H463        H  0.09413390  0.37847671  0.79544240     0.06300
H464        H  0.16290726  0.66704272  0.75270020     0.06100
O465        O  0.19130920  0.71751703  0.32182360    -0.85300
O466        O  0.26509341  0.75005371  0.34360596    -0.82300
C467        C  0.28484347  0.77673898  0.31755263     0.98400
O468        O  0.28300590  0.80543689  0.32080230    -0.82400
O469        O  0.25093117  0.84763750  0.34058530    -0.85000
C470        C  0.22312053  0.84124667  0.31749138     1.02700
O471        O  0.19403206  0.81140412  0.32272671    -0.77800
O472        O  0.15410716  0.73709388  0.34020665    -0.78000
C473        C  0.16149604  0.71675654  0.31598086     1.02600
O474        O  0.17531375  0.70819108  0.42015047    -0.85300
O475        O  0.24849222  0.74708548  0.44107749    -0.82400
C476        C  0.28021387  0.77360722  0.44621417     0.98200
O477        O  0.29183988  0.80097087  0.42005990    -0.82400
O478        O  0.25530835  0.83768879  0.43825833    -0.85000
C479        C  0.22820258  0.84162040  0.44561343     1.02700
O480        O  0.19947608  0.82386471  0.42224682    -0.77800
O481        O  0.16266542  0.75034134  0.43895565    -0.78000
C482        C  0.15757564  0.71871552  0.44429806     1.02600
Cr483      Cr  0.22035045  0.73503011  0.38145174     1.93700
Cr484      Cr  0.26593768  0.81891886  0.37973367     1.93200
Cr485      Cr  0.18159797  0.78039542  0.38082390     1.39100
O486        O  0.22256269  0.77817988  0.38020014    -1.23000
C487        C  0.23129246  0.86988974  0.47893696     0.03200
C488        C  0.20181843  0.86581746  0.50660630    -0.13000
C489        C  0.20530034  0.89460362  0.03514308     0.00700
C490        C  0.23855082  0.92787932  0.03382067    -0.11500
C491        C  0.26790817  0.93231652  0.50619167     0.03200
C492        C  0.26394637  0.90293415  0.47960647    -0.10900
H493        H  0.17655184  0.84032853  0.50622396     0.08800
H494        H  0.24202496  0.95045314  0.05505040     0.06300
H495        H  0.28599434  0.90638175  0.45721617     0.06100
C496        C  0.03056549  0.66603432  0.00179027     0.03200
C497        C  0.03036180  0.69881654  0.00489560    -0.13000
C498        C  0.99767632  0.69924804  0.00481856     0.00700
C499        C  0.30315781  0.00062239  0.00009939    -0.11500
C500        C  0.30283447  0.96754825  0.50426427     0.03200
C501        C  0.33607258  0.96791961  0.50495332    -0.10900
H502        H  0.05576329  0.72407016  0.00709226     0.08800
H503        H  0.27778517  0.00062649  0.99970203     0.06300
H504        H  0.33597671  0.94257560  0.50785144     0.06100
C505        C  0.30547128  0.77083471  0.47926564     0.03200
C506        C  0.30565175  0.73819542  0.47983092    -0.13000
C507        C  0.33089873  0.73409481  0.50642997     0.00700
C508        C  0.02263441  0.76330827  0.03379521    -0.11500
C509        C  0.02336675  0.79681123  0.03428764     0.03200
C510        C  0.33138920  0.80050551  0.00611002    -0.10900
H511        H  0.28702162  0.71634948  0.45721858     0.08800
H512        H  0.04137861  0.75959484  0.05544914     0.06300
H513        H  0.33155127  0.82595914  0.00537191     0.06100
C514        C  0.10884864  0.97583535  0.03146747     0.03200
C515        C  0.13751984  0.99982004  0.50151228    -0.13000
C516        C  0.12826235  0.69255993  0.47600898     0.00700
C517        C  0.09528544  0.69234615  0.47665732    -0.11500
C518        C  0.07114410  0.00028564  0.00175060     0.03200
C519        C  0.07608614  0.97665946  0.03091849    -0.10900
H520        H  0.16280469  0.99964870  0.50140155     0.08800
H521        H  0.09240518  0.71192814  0.45563292     0.06300
H522        H  0.05421090  0.95920110  0.05423383     0.06100
O523        O  0.04227039  0.84269631  0.17054619    -0.85300
O524        O  0.07870899  0.91588356  0.18801031    -0.82300
C525        C  0.10497515  0.94762001  0.19328257     0.98200
O526        O  0.13326052  0.95858864  0.16903874    -0.82400
O527        O  0.16828713  0.92066284  0.19095359    -0.85000
C528        C  0.17337276  0.89412677  0.19680582     1.02700
O529        O  0.15790046  0.86667091  0.17076222    -0.77800
O530        O  0.08462092  0.82977353  0.18813787    -0.78000
C531        C  0.05340002  0.82554633  0.19490400     1.02600
O532        O  0.05061991  0.85599427  0.07115099    -0.85300
O533        O  0.08406654  0.93008940  0.08953911    -0.82400
C534        C  0.11174077  0.95033096  0.06517633     0.98200
O535        O  0.14073775  0.94943795  0.07092303    -0.82400
O536        O  0.18254635  0.91767667  0.09365812    -0.85000
C537        C  0.17579636  0.89094917  0.06782734     1.02700
O538        O  0.14540070  0.86206260  0.07126065    -0.77800
O539        O  0.07089941  0.81959568  0.09000397    -0.78000
C540        C  0.04984125  0.82613019  0.06621936     1.02600
Cr541      Cr  0.06821399  0.88646499  0.12962734     1.93700
Cr542      Cr  0.15225843  0.93230139  0.13092233     1.93200
Cr543      Cr  0.11437004  0.84844481  0.12977123     1.39100
O544        O  0.11152835  0.88900600  0.12962390    -1.23000
C545        C  0.22591520  0.87073241  0.28589250     0.03200
C546        C  0.19703813  0.86718758  0.25755768    -0.13000
C547        C  0.20099014  0.89692967  0.23064235     0.00700
C548        C  0.23381364  0.92955216  0.23156136    -0.11500
C549        C  0.26305058  0.93344913  0.25821737     0.03200
C550        C  0.25875408  0.90419067  0.28554638    -0.10900
H551        H  0.17177301  0.84171533  0.25649628     0.08800
H552        H  0.23722239  0.95145787  0.20891843     0.06300
H553        H  0.28121007  0.90783016  0.30715678     0.06100
C554        C  0.00259249  0.70035083  0.25621207     0.03200
C555        C  0.29888720  0.00109654  0.25313931    -0.13000
C556        C  0.29824895  0.96795621  0.25607289     0.00700
C557        C  0.33113215  0.96794669  0.25507789    -0.11500
C558        C  0.03589005  0.66717779  0.25264558     0.03200
C559        C  0.03539616  0.69985479  0.25612555    -0.10900
H560        H  0.27360077  0.00122077  0.25372639     0.08800
H561        H  0.33099529  0.94254465  0.25712071     0.06300
H562        H  0.06074588  0.72516223  0.25835618     0.06100
C563        C  0.31089852  0.77321982  0.28506390     0.03200
C564        C  0.31131622  0.74018270  0.28474405    -0.13000
C565        C  0.33632808  0.73565101  0.25758003     0.00700
C566        C  0.02828313  0.76480071  0.23052806    -0.11500
C567        C  0.02827959  0.79763064  0.22874549     0.03200
C568        C  0.00265474  0.80176465  0.25594107    -0.10900
H569        H  0.29241823  0.71780993  0.30641339     0.08800
H570        H  0.04700180  0.76127505  0.20849392     0.06300
H571        H  0.00255273  0.82707741  0.25476762     0.06100
C572        C  0.10157974  0.97340743  0.22506684     0.03200
C573        C  0.06889633  0.97379862  0.22556527    -0.13000
C574        C  0.06558851  0.00026082  0.25086200     0.00700
C575        C  0.09968241  0.69070569  0.28159744    -0.11500
C576        C  0.13311434  0.69129256  0.28226507     0.03200
C577        C  0.13115431  0.99955460  0.25164210    -0.10900
H578        H  0.04639334  0.95433258  0.20448558     0.08800
H579        H  0.09538462  0.70828812  0.30482194     0.06300
H580        H  0.15641555  0.99930744  0.25194336     0.06100
O581        O  0.19129050  0.71752013  0.82185918    -0.85300
O582        O  0.26507634  0.75005476  0.84362677    -0.82300
C583        C  0.28482390  0.77673699  0.81756614     0.98400
O584        O  0.28298162  0.80543332  0.82080721    -0.82400
O585        O  0.25091345  0.84764136  0.84060677    -0.85000
C586        C  0.22310442  0.84124865  0.81750847     1.02700
O587        O  0.19401719  0.81140434  0.82274014    -0.77800
O588        O  0.15408799  0.73709727  0.84024187    -0.78000
C589        C  0.16147669  0.71675835  0.81602039     1.02600
O590        O  0.17530066  0.70820529  0.92018349    -0.85300
O591        O  0.24847823  0.74709975  0.94110220    -0.82400
C592        C  0.28020416  0.77361654  0.94622221     0.98200
O593        O  0.29183048  0.80097322  0.92005639    -0.82400
O594        O  0.25529798  0.83768563  0.93827551    -0.85000
C595        C  0.22819518  0.84162190  0.94563106     1.02700
O596        O  0.19947090  0.82387702  0.92225730    -0.77800
O597        O  0.16265344  0.75035734  0.93898347    -0.78000
C598        C  0.15756342  0.71873169  0.94432928     1.02600
Cr599      Cr  0.22033469  0.73503651  0.88147956     1.93700
Cr600      Cr  0.26592269  0.81892051  0.87974402     1.93200
Cr601      Cr  0.18158439  0.78040352  0.88084489     1.39100
O602        O  0.22254725  0.77818468  0.88021877    -1.23000
C603        C  0.23128554  0.86988454  0.97896300     0.03200
C604        C  0.20180603  0.86581311  0.00661770    -0.13000
C605        C  0.20531511  0.89460909  0.53513380     0.00700
C606        C  0.23856459  0.92788731  0.53379856    -0.11500
C607        C  0.26789870  0.93230673  0.00622864     0.03200
C608        C  0.26394274  0.90292477  0.97964876    -0.10900
H609        H  0.17653687  0.84032674  0.00622393     0.08800
H610        H  0.24204144  0.95046065  0.55503148     0.06300
H611        H  0.28599588  0.90637187  0.95726942     0.06100
C612        C  0.03058443  0.66603656  0.50178222     0.03200
C613        C  0.03038549  0.69882191  0.50487622    -0.13000
C614        C  0.99770098  0.69925590  0.50480972     0.00700
C615        C  0.30317983  0.00063543  0.50008879    -0.11500
C616        C  0.30281968  0.96754001  0.00430039     0.03200
C617        C  0.33605972  0.96791714  0.00500700    -0.10900
H618        H  0.05578867  0.72407528  0.50705573     0.08800
H619        H  0.27780972  0.00064484  0.49969791     0.06300
H620        H  0.33596893  0.94257681  0.00793023     0.06100
C621        C  0.30546480  0.77084288  0.97926308     0.03200
C622        C  0.30563267  0.73819786  0.97983327    -0.13000
C623        C  0.33087766  0.73409029  0.00642575     0.00700
C624        C  0.02265611  0.76331690  0.53376591    -0.11500
C625        C  0.02338213  0.79681616  0.53425648     0.03200
C626        C  0.33138325  0.80049534  0.50612830    -0.10900
H627        H  0.28699331  0.71635220  0.95722779     0.08800
H628        H  0.04140097  0.75960588  0.55542208     0.06300
H629        H  0.33153748  0.82594514  0.50539514     0.06100
C630        C  0.10888151  0.97583525  0.53142837     0.03200
C631        C  0.13747507  0.99980537  0.00152654    -0.13000
C632        C  0.12825049  0.69257583  0.97603944     0.00700
C633        C  0.09527312  0.69236068  0.97668991    -0.11500
C634        C  0.07118332  0.00029125  0.50171124     0.03200
C635        C  0.07611631  0.97665221  0.53086169    -0.10900
H636        H  0.16275832  0.99963101  0.00140487     0.08800
H637        H  0.09239459  0.71194790  0.95567497     0.06300
H638        H  0.05423238  0.95918158  0.55415789     0.06100
O639        O  0.04226233  0.84271183  0.67054473    -0.85300
O640        O  0.07870612  0.91590579  0.68797238    -0.82300
C641        C  0.10497322  0.94764160  0.69324221     0.98200
O642        O  0.13326493  0.95860013  0.66901306    -0.82400
O643        O  0.16828112  0.92066394  0.69095371    -0.85000
C644        C  0.17336188  0.89412554  0.69681443     1.02700
O645        O  0.15788618  0.86666565  0.67077739    -0.77800
O646        O  0.08459488  0.82975752  0.68811536    -0.78000
C647        C  0.05337945  0.82554472  0.69489140     1.02600
O648        O  0.05061682  0.85599067  0.57113742    -0.85300
O649        O  0.08408249  0.93008695  0.58949408    -0.82400
C650        C  0.11176351  0.95032844  0.56514123     0.98200
O651        O  0.14075928  0.94943721  0.57090511    -0.82400
O652        O  0.18256241  0.91767788  0.59366455    -0.85000
C653        C  0.17581285  0.89095244  0.56782961     1.02700
O654        O  0.14541634  0.86206625  0.57126341    -0.77800
O655        O  0.07091243  0.81960277  0.58997355    -0.78000
C656        C  0.04984945  0.82613335  0.56619495     1.02600
Cr657      Cr  0.06821596  0.88647186  0.62960431     1.93700
Cr658      Cr  0.15226451  0.93230227  0.63091414     1.93200
Cr659      Cr  0.11436798  0.84844381  0.62976327     1.39100
O660        O  0.11152949  0.88900741  0.62961342    -1.23000
C661        C  0.22590039  0.87073453  0.78590994     0.03200
C662        C  0.19702535  0.86718804  0.75757003    -0.13000
C663        C  0.20097778  0.89692982  0.73065453     0.00700
C664        C  0.23380048  0.92955374  0.73157798    -0.11500
C665        C  0.26303615  0.93345240  0.75823895     0.03200
C666        C  0.25873887  0.90419404  0.78556822    -0.10900
H667        H  0.17176142  0.84171470  0.75650508     0.08800
H668        H  0.23721009  0.95145995  0.70893546     0.06300
H669        H  0.28119422  0.90783470  0.80718106     0.06100
C670        C  0.00257912  0.70035303  0.75623061     0.03200
C671        C  0.29886617  0.00110001  0.75317502    -0.13000
C672        C  0.29823350  0.96796179  0.75609906     0.00700
C673        C  0.33111998  0.96795705  0.75508984    -0.11500
C674        C  0.03587758  0.66717905  0.75266970     0.03200
C675        C  0.03538310  0.69985661  0.75615309    -0.10900
H676        H  0.27357741  0.00121944  0.75376952     0.08800
H677        H  0.33098753  0.94255686  0.75712451     0.06300
H678        H  0.06073220  0.72516415  0.75839144     0.06100
C679        C  0.31088494  0.77321917  0.78508351     0.03200
C680        C  0.31130556  0.74018284  0.78476494    -0.13000
C681        C  0.33632786  0.73565646  0.75761365     0.00700
C682        C  0.02826056  0.76479952  0.73053152    -0.11500
C683        C  0.02825281  0.79762799  0.72873798     0.03200
C684        C  0.00262713  0.80176083  0.75593937    -0.10900
H685        H  0.29240177  0.71780724  0.80642581     0.08800
H686        H  0.04697881  0.76127196  0.70849910     0.06300
H687        H  0.00252075  0.82707122  0.75476183     0.06100
C688        C  0.10157777  0.97343437  0.72502163     0.03200
C689        C  0.06888415  0.97380927  0.72555572    -0.13000
C690        C  0.06557611  0.00026619  0.75086936     0.00700
C691        C  0.09966202  0.69069910  0.78164370    -0.11500
C692        C  0.13309685  0.69129248  0.78231053     0.03200
C693        C  0.13115762  0.99958969  0.75158218    -0.10900
H694        H  0.04637293  0.95433443  0.70449534     0.08800
H695        H  0.09535813  0.70827515  0.80487292     0.06300
H696        H  0.15642440  0.99935324  0.75186526     0.06100
O697        O  0.50815389  0.04122430  0.33344580    -0.85300
O698        O  0.58123192  0.08058242  0.31162953    -0.82300
C699        C  0.61288480  0.10729567  0.30649739     0.98400
O700        O  0.62443239  0.13441400  0.33297780    -0.82400
O701        O  0.58697029  0.17008727  0.31504816    -0.85000
C702        C  0.55977220  0.17394850  0.30812591     1.02700
O703        O  0.53143449  0.15655731  0.33230718    -0.77800
O704        O  0.49544528  0.08342554  0.31513935    -0.78000
C705        C  0.49045014  0.05189616  0.30954832     1.02600
O706        O  0.52452051  0.05014477  0.43155645    -0.85300
O707        O  0.59825059  0.08317773  0.40882593    -0.82400
C708        C  0.61785930  0.10979580  0.43498753     0.98200
O709        O  0.61575276  0.13838586  0.43211883    -0.82400
O710        O  0.58303432  0.18005717  0.41268969    -0.85000
C711        C  0.55548216  0.17360863  0.43635876     1.02700
O712        O  0.52648954  0.14362783  0.43177162    -0.77800
O713        O  0.48706462  0.06950455  0.41363505    -0.78000
C714        C  0.49467620  0.04929608  0.43774301     1.02600
Cr715      Cr  0.55329761  0.06802165  0.37161937     1.93700
Cr716      Cr  0.59829716  0.15179706  0.37347484     1.93200
Cr717      Cr  0.51410530  0.11298681  0.37339926     1.39100
O718        O  0.55517021  0.11097506  0.37339107    -1.23000
C719        C  0.55865119  0.20335902  0.46758264     0.03200
C720        C  0.53041833  0.20026326  0.49674468    -0.13000
C721        C  0.53491072  0.23044734  0.02311914     0.00700
C722        C  0.56784151  0.26322213  0.02070969    -0.11500
C723        C  0.59654735  0.26650250  0.49320530     0.03200
C724        C  0.59141106  0.23676399  0.46643253    -0.10900
H725        H  0.50516400  0.17482101  0.49869980     0.08800
H726        H  0.57174792  0.28571385  0.04250187     0.06300
H727        H  0.61329527  0.24004782  0.44391759     0.06100
C728        C  0.36931761  0.00048127  0.00145176     0.03200
C729        C  0.36884050  0.03315584  0.99720465    -0.13000
C730        C  0.33602808  0.03368310  0.99661402     0.00700
C731        C  0.63410099  0.33445579  0.99417041    -0.11500
C732        C  0.63227691  0.30066875  0.49318498     0.03200
C733        C  0.66472453  0.29959274  0.49266874    -0.10900
H734        H  0.39419838  0.05843522  0.99476749     0.08800
H735        H  0.60929029  0.33553250  0.99465974     0.06300
H736        H  0.66371297  0.27373443  0.49213118     0.06100
C737        C  0.64403628  0.10631967  0.46716942     0.03200
C738        C  0.64462692  0.07334023  0.46751574    -0.13000
C739        C  0.66976351  0.06898010  0.49472623     0.00700
C740        C  0.36162767  0.09827538  0.02156179    -0.11500
C741        C  0.36139994  0.13099046  0.02315629     0.03200
C742        C  0.66900304  0.13494271  0.99613574    -0.10900
H743        H  0.62571672  0.05088201  0.44597308     0.08800
H744        H  0.38044124  0.09495618  0.04367379     0.06300
H745        H  0.66874924  0.16018116  0.99730121     0.06100
C746        C  0.43579475  0.30504792  0.02313545     0.03200
C747        C  0.46590730  0.33086646  0.49678165    -0.13000
C748        C  0.46641626  0.02399691  0.47173250     0.00700
C749        C  0.43308879  0.02365114  0.47257303    -0.11500
C750        C  0.39940552  0.33019144  0.99298004     0.03200
C751        C  0.40281833  0.30481232  0.02045015    -0.10900
H752        H  0.49141801  0.33120111  0.49875517     0.08800
H753        H  0.42880907  0.04120290  0.44927139     0.06300
H754        H  0.38025801  0.28599104  0.04198218     0.06100
O755        O  0.38337730  0.19009859  0.18077106    -0.85300
O756        O  0.41637576  0.26401594  0.16042589    -0.82300
C757        C  0.44352599  0.28402607  0.18568433     0.98200
O758        O  0.47238259  0.28269302  0.18134726    -0.82400
O759        O  0.51365003  0.25002720  0.16062517    -0.85000
C760        C  0.50669497  0.22271991  0.18543378     1.02700
O761        O  0.47643137  0.19390855  0.18115935    -0.77800
O762        O  0.40237076  0.15283840  0.16074411    -0.78000
C763        C  0.38207941  0.15994647  0.18541579     1.02600
O764        O  0.37484847  0.17548238  0.08181103    -0.85300
O765        O  0.41215061  0.24846152  0.06252767    -0.82400
C766        C  0.43861812  0.28007729  0.05691296     0.98200
O767        O  0.46641616  0.29157715  0.08234504    -0.82400
O768        O  0.50237075  0.25443360  0.06285597    -0.85000
C769        C  0.50726143  0.22780989  0.05695167     1.02700
O770        O  0.49085379  0.19993017  0.08217208    -0.77800
O771        O  0.41789694  0.16403254  0.06280933    -0.78000
C772        C  0.38635920  0.15903431  0.05674824     1.02600
Cr773      Cr  0.40089083  0.21983322  0.12164365     1.93700
Cr774      Cr  0.48482602  0.26550418  0.12202353     1.93200
Cr775      Cr  0.44656040  0.18155249  0.12196975     1.39100
O776        O  0.44409142  0.22228199  0.12241900    -1.23000
C777        C  0.56240620  0.20168340  0.27420639     0.03200
C778        C  0.53251791  0.19743030  0.24715846    -0.13000
C779        C  0.53609130  0.22577816  0.21760385     0.00700
C780        C  0.56964574  0.25845890  0.21703467    -0.11500
C781        C  0.59912080  0.26323592  0.24425919     0.03200
C782        C  0.59532002  0.23446099  0.27199559    -0.10900
H783        H  0.50698919  0.17225094  0.24878967     0.08800
H784        H  0.57327390  0.28050710  0.19458235     0.06300
H785        H  0.61764587  0.23822297  0.29404051     0.06100
C786        C  0.33161190  0.03399634  0.24920169     0.03200
C787        C  0.63304147  0.33134059  0.24500292    -0.13000
C788        C  0.63364013  0.29866828  0.24466420     0.00700
C789        C  0.66725651  0.29998871  0.24543107    -0.11500
C790        C  0.36423779  0.00051342  0.25116459     0.03200
C791        C  0.36420863  0.03340617  0.24816527    -0.10900
H792        H  0.60733192  0.33064683  0.24464196     0.08800
H793        H  0.66795149  0.27497395  0.24535876     0.06300
H794        H  0.38964802  0.05857606  0.24542295     0.06100
C795        C  0.63835478  0.10490369  0.27349742     0.03200
C796        C  0.63940530  0.07275853  0.27395271    -0.13000
C797        C  0.66471923  0.06880354  0.24737569     0.00700
C798        C  0.35599510  0.09779334  0.21949432    -0.11500
C799        C  0.35601520  0.13094058  0.21806161     0.03200
C800        C  0.33043435  0.13443556  0.24596637    -0.10900
H801        H  0.62125838  0.05113770  0.29720147     0.08800
H802        H  0.37484982  0.09414763  0.19799985     0.06300
H803        H  0.33002458  0.15960562  0.24601952     0.06100
C804        C  0.44022193  0.30982349  0.21850286     0.03200
C805        C  0.40713277  0.30983357  0.21900849    -0.13000
C806        C  0.40218353  0.33435638  0.24632076     0.00700
C807        C  0.42864580  0.02631903  0.27649663    -0.11500
C808        C  0.46134458  0.02606709  0.27773710     0.03200
C809        C  0.46878604  0.33509727  0.24732725    -0.10900
H810        H  0.38497957  0.29105266  0.19697364     0.08800
H811        H  0.42583709  0.04601035  0.29737181     0.06300
H812        H  0.49430083  0.33538639  0.24810865     0.06100
O813        O  0.50812943  0.04124259  0.83343168    -0.85300
O814        O  0.58120504  0.08058594  0.81163380    -0.82300
C815        C  0.61286074  0.10729422  0.80650710     0.98400
O816        O  0.62441403  0.13440576  0.83299858    -0.82400
O817        O  0.58694387  0.17006114  0.81503006    -0.85000
C818        C  0.55975816  0.17394632  0.80813362     1.02700
O819        O  0.53143154  0.15658079  0.83234342    -0.77800
O820        O  0.49543698  0.08345651  0.81512725    -0.78000
C821        C  0.49044084  0.05192801  0.80952344     1.02600
O822        O  0.52449031  0.05014839  0.93155481    -0.85300
O823        O  0.59822045  0.08318265  0.90884494    -0.82400
C824        C  0.61783143  0.10980395  0.93500490     0.98200
O825        O  0.61572546  0.13839432  0.93212957    -0.82400
O826        O  0.58300363  0.18005716  0.91265544    -0.85000
C827        C  0.55546114  0.17360278  0.93634861     1.02700
O828        O  0.52647428  0.14361309  0.93179309    -0.77800
O829        O  0.48702681  0.06949424  0.91361637    -0.78000
C830        C  0.49464291  0.04929312  0.93773452     1.02600
Cr831      Cr  0.55326956  0.06802410  0.87162169     1.93700
Cr832      Cr  0.59827328  0.15179324  0.87347134     1.93200
Cr833      Cr  0.51408540  0.11299280  0.87340631     1.39100
O834        O  0.55514606  0.11097541  0.87339552    -1.23000
C835        C  0.55863573  0.20335805  0.96755626     0.03200
C836        C  0.53040762  0.20026853  0.99671578    -0.13000
C837        C  0.53491604  0.23043699  0.52316154     0.00700
C838        C  0.56784704  0.26321283  0.52075975    -0.11500
C839        C  0.59653806  0.26650361  0.99315546     0.03200
C840        C  0.59139614  0.23676089  0.96639162    -0.10900
H841        H  0.50515308  0.17482693  0.99868050     0.08800
H842        H  0.57175025  0.28570113  0.54255664     0.06300
H843        H  0.61327776  0.24003928  0.94387557     0.06100
C844        C  0.36933537  0.00048270  0.50142249     0.03200
C845        C  0.36886417  0.03316320  0.49720837    -0.13000
C846        C  0.33605322  0.03369459  0.49661777     0.00700
C847        C  0.63410071  0.33445893  0.49423478    -0.11500
C848        C  0.63227042  0.30066332  0.99312774     0.03200
C849        C  0.66471359  0.29957866  0.99261394    -0.10900
H850        H  0.39422378  0.05844275  0.49479253     0.08800
H851        H  0.60928734  0.33553052  0.49472321     0.06300
H852        H  0.66369715  0.27371790  0.99208590     0.06100
C853        C  0.64401415  0.10633225  0.96718661     0.03200
C854        C  0.64460006  0.07335064  0.96753618    -0.13000
C855        C  0.66974366  0.06899164  0.99473227     0.00700
C856        C  0.36163383  0.09827924  0.52159567    -0.11500
C857        C  0.36140370  0.13099393  0.52318307     0.03200
C858        C  0.66901211  0.13492564  0.49612940    -0.10900
H859        H  0.62568154  0.05088983  0.94600382     0.08800
H860        H  0.38043562  0.09495497  0.54372590     0.06300
H861        H  0.66875510  0.16016253  0.49729451     0.06100
C862        C  0.43581711  0.30506309  0.52317133     0.03200
C863        C  0.46588347  0.33085395  0.99674685    -0.13000
C864        C  0.46639047  0.02399832  0.97173444     0.00700
C865        C  0.43305831  0.02364077  0.97257221    -0.11500
C866        C  0.39944608  0.33023841  0.49306385     0.03200
C867        C  0.40285121  0.30484650  0.52051221    -0.10900
H868        H  0.49140129  0.33120458  0.99874050     0.08800
H869        H  0.42876454  0.04117171  0.94924856     0.06300
H870        H  0.38029174  0.28602641  0.54204652     0.06100
O871        O  0.38335589  0.19010602  0.68079654    -0.85300
O872        O  0.41635773  0.26402137  0.66043768    -0.82300
C873        C  0.44350389  0.28402817  0.68570188     0.98200
O874        O  0.47236006  0.28269184  0.68137533    -0.82400
O875        O  0.51362392  0.25001890  0.66067210    -0.85000
C876        C  0.50667109  0.22270776  0.68546763     1.02700
O877        O  0.47640882  0.19389691  0.68119327    -0.77800
O878        O  0.40235000  0.15284364  0.66078255    -0.78000
C879        C  0.38205803  0.15995438  0.68545069     1.02600
O880        O  0.37483763  0.17548375  0.58183658    -0.85300
O881        O  0.41215553  0.24846776  0.56254627    -0.82400
C882        C  0.43862930  0.28008202  0.55693720     0.98200
O883        O  0.46642231  0.29157696  0.58237471    -0.82400
O884        O  0.50237720  0.25442925  0.56290248    -0.85000
C885        C  0.50725991  0.22780002  0.55699220     1.02700
O886        O  0.49083887  0.19991648  0.58220454    -0.77800
O887        O  0.41788878  0.16403643  0.56284477    -0.78000
C888        C  0.38635227  0.15903648  0.55677922     1.02600
Cr889      Cr  0.40087978  0.21983745  0.62166430     1.93700
Cr890      Cr  0.48481633  0.26550075  0.62206146     1.93200
Cr891      Cr  0.44654322  0.18154899  0.62200508     1.39100
O892        O  0.44407924  0.22228156  0.62245096    -1.23000
C893        C  0.56239450  0.20167656  0.77421013     0.03200
C894        C  0.53249982  0.19742271  0.74718024    -0.13000
C895        C  0.53607228  0.22576305  0.71761644     0.00700
C896        C  0.56963133  0.25843562  0.71701429    -0.11500
C897        C  0.59911088  0.26321795  0.74422849     0.03200
C898        C  0.59531377  0.23444880  0.77197571    -0.10900
H899        H  0.50696689  0.17224890  0.74883310     0.08800
H900        H  0.57325889  0.28047613  0.69454689     0.06300
H901        H  0.61764449  0.23821183  0.79401108     0.06100
C902        C  0.33158762  0.03400245  0.74923175     0.03200
C903        C  0.63301538  0.33132221  0.74492580    -0.13000
C904        C  0.63362506  0.29865459  0.74461365     0.00700
C905        C  0.66724578  0.29998581  0.74538261    -0.11500
C906        C  0.36422281  0.00052706  0.75116767     0.03200
C907        C  0.36418630  0.03341675  0.74818145    -0.10900
H908        H  0.60730212  0.33062062  0.74456700     0.08800
H909        H  0.66794868  0.27497514  0.74533217     0.06300
H910        H  0.38962306  0.05858874  0.74543486     0.06100
C911        C  0.63832612  0.10490039  0.77350371     0.03200
C912        C  0.63937274  0.07275379  0.77396077    -0.13000
C913        C  0.66468200  0.06879443  0.74738079     0.00700
C914        C  0.35596965  0.09780122  0.71953041    -0.11500
C915        C  0.35599214  0.13094972  0.71810087     0.03200
C916        C  0.33041157  0.13444358  0.74600981    -0.10900
H917        H  0.62122814  0.05113673  0.79721572     0.08800
H918        H  0.37482400  0.09415614  0.69803464     0.06300
H919        H  0.33000355  0.15961450  0.74606916     0.06100
C920        C  0.44019677  0.30982506  0.71851615     0.03200
C921        C  0.40710147  0.30982410  0.71904331    -0.13000
C922        C  0.40215973  0.33435678  0.74634702     0.00700
C923        C  0.42863897  0.02634961  0.77646907    -0.11500
C924        C  0.46134517  0.02611222  0.77769151     0.03200
C925        C  0.46876887  0.33511201  0.74731490    -0.10900
H926        H  0.38493970  0.29102895  0.69703068     0.08800
H927        H  0.42582406  0.04603034  0.79736002     0.06300
H928        H  0.49428715  0.33540780  0.74808266     0.06100
O929        O  0.50899111  0.37473871  0.33333519    -0.85300
O930        O  0.58230957  0.41179992  0.31542696    -0.82300
C931        C  0.61378868  0.43848999  0.30962803     0.98400
O932        O  0.62492958  0.46662670  0.33427676    -0.82400
O933        O  0.58830328  0.50322397  0.31488848    -0.85000
C934        C  0.56165281  0.50801684  0.30842587     1.02700
O935        O  0.53329475  0.49090893  0.33255044    -0.77800
O936        O  0.49754703  0.41761670  0.31324762    -0.78000
C937        C  0.49250247  0.38597378  0.30785785     1.02600
O938        O  0.52257379  0.38354166  0.43242880    -0.85300
O939        O  0.59669111  0.41615687  0.41340809    -0.82400
C940        C  0.61726386  0.44351091  0.43797544     0.98200
O941        O  0.61619095  0.47247390  0.43329582    -0.82400
O942        O  0.58331132  0.51349675  0.41277744    -0.85000
C943        C  0.55563305  0.50663095  0.43664904     1.02700
O944        O  0.52662234  0.47663892  0.43141061    -0.77800
O945        O  0.48567105  0.40256768  0.41087806    -0.78000
C946        C  0.49233111  0.38217439  0.43594905     1.02600
Cr947      Cr  0.55296981  0.40085616  0.37384597     1.93700
Cr948      Cr  0.59888370  0.48496280  0.37396073     1.93200
Cr949      Cr  0.51476961  0.44663693  0.37234183     1.39100
O950        O  0.55555690  0.44418056  0.37383959    -1.23000
C951        C  0.55855883  0.53585781  0.46898103     0.03200
C952        C  0.52976844  0.53231741  0.49755735    -0.13000
C953        C  0.53386567  0.56202345  0.02470742     0.00700
C954        C  0.56679938  0.59455971  0.02390940    -0.11500
C955        C  0.59596820  0.59851166  0.49701148     0.03200
C956        C  0.59150655  0.56924385  0.46954970    -0.10900
H957        H  0.50440686  0.50693486  0.49844491     0.08800
H958        H  0.57030906  0.61646885  0.04661413     0.06300
H959        H  0.61388623  0.57290243  0.44777644     0.06100
C960        C  0.36516821  0.33159364  0.99309112     0.03200
C961        C  0.36625994  0.36510914  0.99430701    -0.13000
C962        C  0.33423950  0.36686846  0.99475663     0.00700
C963        C  0.63162330  0.66628061  0.00166527    -0.11500
C964        C  0.63112984  0.63318579  0.49858765     0.03200
C965        C  0.66414889  0.63338713  0.49857282    -0.10900
H966        H  0.39213827  0.38994143  0.99495848     0.08800
H967        H  0.60630968  0.66636218  0.00166234     0.06300
H968        H  0.66412128  0.60804370  0.49645607     0.06100
C969        C  0.64347250  0.44025204  0.47019719     0.03200
C970        C  0.64432611  0.40763113  0.46889217    -0.13000
C971        C  0.66886526  0.40245112  0.49576381     0.00700
C972        C  0.36055849  0.43085611  0.02400907    -0.11500
C973        C  0.36050954  0.46370007  0.02698355     0.03200
C974        C  0.66821285  0.46824059  0.00019009    -0.10900
H975        H  0.62604145  0.38590649  0.44593296     0.08800
H976        H  0.37914190  0.42680537  0.04561563     0.06300
H977        H  0.66790046  0.49341725  0.00231895     0.06100
C978        C  0.43492334  0.63962616  0.02868224     0.03200
C979        C  0.46476233  0.66613961  0.50246211    -0.13000
C980        C  0.46263342  0.35583056  0.46746110     0.00700
C981        C  0.42918725  0.35509667  0.46642659    -0.11500
C982        C  0.39868567  0.66594537  0.00175724     0.03200
C983        C  0.40208685  0.63966527  0.02734903    -0.10900
H984        H  0.49018562  0.66622349  0.50277164     0.08800
H985        H  0.42587580  0.37379524  0.44412837     0.06300
H986        H  0.37949512  0.62010711  0.04822148     0.06100
O987        O  0.38355754  0.52211136  0.18449410    -0.85300
O988        O  0.41708768  0.59627149  0.16607779    -0.82300
C989        C  0.44507145  0.61714671  0.18948009     0.98200
O990        O  0.47421016  0.61663784  0.18309208    -0.82400
O991        O  0.51543960  0.58409373  0.16154790    -0.85000
C992        C  0.50879964  0.55738379  0.18732729     1.02700
O993        O  0.47850613  0.52840096  0.18388062    -0.77800
O994        O  0.40419581  0.48605698  0.16567164    -0.78000
C995        C  0.38306766  0.49237784  0.18947067     1.02600
O996        O  0.37503213  0.50902019  0.08500006    -0.85300
O997        O  0.41142041  0.58246266  0.06755915    -0.82400
C998        C  0.43809913  0.61387486  0.06110035     0.98200
O999        O  0.46670172  0.62464252  0.08456384    -0.82400
O1000       O  0.50136012  0.58620158  0.06395961    -0.85000
C1001       C  0.50621046  0.55949432  0.05833248     1.02700
O1002       O  0.49047411  0.53211623  0.08439535    -0.77800
O1003       O  0.41694181  0.49536472  0.06770237    -0.78000
C1004       C  0.38581213  0.49141414  0.06095843     1.02600
Cr1005     Cr  0.40114577  0.55276412  0.12592220     1.93700
Cr1006     Cr  0.48536359  0.59851003  0.12358430     1.93200
Cr1007     Cr  0.44721885  0.51454320  0.12562557     1.39100
O1008       O  0.44448719  0.55524040  0.12548293    -1.23000
C1009       C  0.56473730  0.53639299  0.27537509     0.03200
C1010       C  0.53507103  0.53236382  0.24821306    -0.13000
C1011       C  0.53838295  0.56114038  0.21987929     0.00700
C1012       C  0.57161089  0.59441578  0.22099448    -0.11500
C1013       C  0.60115284  0.59885683  0.24817296     0.03200
C1014       C  0.59738325  0.56943224  0.27455832    -0.10900
H1015       H  0.50980507  0.50687392  0.24876494     0.08800
H1016       H  0.57493420  0.61695465  0.19981322     0.06300
H1017       H  0.61953532  0.57280550  0.29667431     0.06100
C1018       C  0.33201060  0.36490522  0.24600798     0.03200
C1019       C  0.63639079  0.66726262  0.25305849    -0.13000
C1020       C  0.63606901  0.63413612  0.24973535     0.00700
C1021       C  0.66934090  0.63457225  0.24938673    -0.11500
C1022       C  0.36663913  0.33325325  0.24626763     0.03200
C1023       C  0.36527697  0.36550006  0.24668552    -0.10900
H1024       H  0.61102528  0.66728055  0.25317581     0.08800
H1025       H  0.66932938  0.60925035  0.24695982     0.06300
H1026       H  0.39025897  0.39123141  0.24744777     0.06100
C1027       C  0.63905858  0.43573381  0.27635252     0.03200
C1028       C  0.63891700  0.40280004  0.27384174    -0.13000
C1029       C  0.66439584  0.39942763  0.24655755     0.00700
C1030       C  0.35620749  0.42929851  0.22031555    -0.11500
C1031       C  0.35685340  0.46272574  0.22120293     0.03200
C1032       C  0.33167567  0.46586901  0.25018775    -0.10900
H1033       H  0.61994748  0.38017638  0.29517004     0.08800
H1034       H  0.37496450  0.42603166  0.19809236     0.06300
H1035       H  0.33188369  0.49132283  0.25197488     0.06100
C1036       C  0.44225624  0.64285850  0.22292633     0.03200
C1037       C  0.40942020  0.64351384  0.22355509    -0.13000
C1038       C  0.40443542  0.66717563  0.25255860     0.00700
C1039       C  0.43118273  0.35987758  0.27343399    -0.11500
C1040       C  0.46438318  0.36050912  0.27460688     0.03200
C1041       C  0.47094157  0.66712910  0.25255191    -0.10900
H1042       H  0.38750625  0.62590266  0.20038426     0.08800
H1043       H  0.42742134  0.37839133  0.29557352     0.06300
H1044       H  0.49629675  0.66709810  0.25259677     0.06100
O1045       O  0.50897309  0.37474316  0.83331197    -0.85300
O1046       O  0.58229064  0.41178653  0.81540048    -0.82300
C1047       C  0.61376970  0.43847561  0.80959538     0.98400
O1048       O  0.62491575  0.46660973  0.83425268    -0.82400
O1049       O  0.58829075  0.50320435  0.81487227    -0.85000
C1050       C  0.56164967  0.50801349  0.80842745     1.02700
O1051       O  0.53329725  0.49091891  0.83256530    -0.77800
O1052       O  0.49755026  0.41763490  0.81321625    -0.78000
C1053       C  0.49249447  0.38598792  0.80783104     1.02600
O1054       O  0.52255365  0.38353237  0.93240368    -0.85300
O1055       O  0.59667480  0.41614200  0.91338852    -0.82400
C1056       C  0.61725050  0.44349621  0.93795650     0.98200
O1057       O  0.61617809  0.47245927  0.93327880    -0.82400
O1058       O  0.58329351  0.51347838  0.91276517    -0.85000
C1059       C  0.55561655  0.50660439  0.93664778     1.02700
O1060       O  0.52660880  0.47660960  0.93141179    -0.77800
O1061       O  0.48564610  0.40254594  0.91083000    -0.78000
C1062       C  0.49230482  0.38215416  0.93590598     1.02600
Cr1063     Cr  0.55295243  0.40084527  0.87382318     1.93700
Cr1064     Cr  0.59887139  0.48494777  0.87394390     1.93200
Cr1065     Cr  0.51476006  0.44663108  0.87232597     1.39100
O1066       O  0.55554421  0.44416955  0.87382203    -1.23000
C1067       C  0.55853726  0.53582521  0.96898620     0.03200
C1068       C  0.52974427  0.53227626  0.99756448    -0.13000
C1069       C  0.53389704  0.56206728  0.52470131     0.00700
C1070       C  0.56683439  0.59459927  0.52390100    -0.11500
C1071       C  0.59593607  0.59847953  0.99702069     0.03200
C1072       C  0.59148049  0.56921523  0.96955570    -0.10900
H1073       H  0.50438539  0.50689091  0.99845046     0.08800
H1074       H  0.57034946  0.61650999  0.54660645     0.06300
H1075       H  0.61386170  0.57287964  0.94778107     0.06100
C1076       C  0.36520651  0.33163372  0.49317753     0.03200
C1077       C  0.36628732  0.36514328  0.49439366    -0.13000
C1078       C  0.33426013  0.36689080  0.49483890     0.00700
C1079       C  0.63165826  0.66630957  0.50165159    -0.11500
C1080       C  0.63109584  0.63315617  0.99860321     0.03200
C1081       C  0.66411502  0.63335761  0.99859588    -0.10900
H1082       H  0.39216212  0.38997945  0.49504354     0.08800
H1083       H  0.60634550  0.66639301  0.50165077     0.06300
H1084       H  0.66408764  0.60801415  0.99648221     0.06100
C1085       C  0.64346413  0.44023922  0.97017399     0.03200
C1086       C  0.64433269  0.40762743  0.96884084    -0.13000
C1087       C  0.66887077  0.40244426  0.99570907     0.00700
C1088       C  0.36057853  0.43088580  0.52405109    -0.11500
C1089       C  0.36053827  0.46373425  0.52699481     0.03200
C1090       C  0.66823273  0.46826269  0.50018900    -0.10900
H1091       H  0.62605785  0.38591028  0.94586504     0.08800
H1092       H  0.37916393  0.42684203  0.54566322     0.06300
H1093       H  0.66793143  0.49344584  0.50229663     0.06100
C1094       C  0.43498839  0.63968069  0.52871874     0.03200
C1095       C  0.46470113  0.66609340  0.00243967    -0.13000
C1096       C  0.46260098  0.35580078  0.96740249     0.00700
C1097       C  0.42914574  0.35504687  0.96633872    -0.11500
C1098       C  0.39874605  0.66599045  0.50178597     0.03200
C1099       C  0.40215391  0.63972184  0.52739263    -0.10900
H1100       H  0.49012559  0.66617974  0.00275464     0.08800
H1101       H  0.42582913  0.37373368  0.94402274     0.06300
H1102       H  0.37956601  0.62016947  0.54827565     0.06100
O1103       O  0.38358206  0.52213313  0.68448355    -0.85300
O1104       O  0.41711795  0.59629482  0.66608813    -0.82300
C1105       C  0.44509144  0.61715611  0.68951381     0.98200
O1106       O  0.47423104  0.61664516  0.68313962    -0.82400
O1107       O  0.51547059  0.58411478  0.66156640    -0.85000
C1108       C  0.50882792  0.55739783  0.68733004     1.02700
O1109       O  0.47853620  0.52841522  0.68387127    -0.77800
O1110       O  0.40422412  0.48607936  0.66566866    -0.78000
C1111       C  0.38309041  0.49239836  0.68946049     1.02600
O1112       O  0.37507009  0.50906401  0.58499243    -0.85300
O1113       O  0.41147954  0.58250848  0.56756800    -0.82400
C1114       C  0.43815775  0.61392487  0.56113198     0.98200
O1115       O  0.46674992  0.62469076  0.58461630    -0.82400
O1116       O  0.50140933  0.58625328  0.56398744    -0.85000
C1117       C  0.50624774  0.55953996  0.55833692     1.02700
O1118       O  0.49050270  0.53215218  0.58438279    -0.77800
O1119       O  0.41697493  0.49540324  0.56769539    -0.78000
C1120       C  0.38584669  0.49145531  0.56095356     1.02600
Cr1121     Cr  0.40118386  0.55279797  0.62592269     1.93700
Cr1122     Cr  0.48540030  0.59854145  0.62361923     1.93200
Cr1123     Cr  0.44724979  0.51457102  0.62561949     1.39100
O1124       O  0.44452274  0.55527052  0.62549287    -1.23000
C1125       C  0.56474256  0.53639509  0.77538708     0.03200
C1126       C  0.53508570  0.53236721  0.74820918    -0.13000
C1127       C  0.53840437  0.56114914  0.71988438     0.00700
C1128       C  0.57162930  0.59442672  0.72101901    -0.11500
C1129       C  0.60116076  0.59886510  0.74821603     0.03200
C1130       C  0.59738528  0.56943667  0.77459661    -0.10900
H1131       H  0.50982158  0.50687511  0.74874400     0.08800
H1132       H  0.57495825  0.61696971  0.69984199     0.06300
H1133       H  0.61952991  0.57280733  0.79672631     0.06100
C1134       C  0.33199385  0.36491382  0.74601215     0.03200
C1135       C  0.63640149  0.66727036  0.75313965    -0.13000
C1136       C  0.63607519  0.63414213  0.74979622     0.00700
C1137       C  0.66934214  0.63457110  0.74944039    -0.11500
C1138       C  0.36661676  0.33325555  0.74630745     0.03200
C1139       C  0.36525804  0.36550461  0.74669203    -0.10900
H1140       H  0.61103749  0.66729135  0.75325547     0.08800
H1141       H  0.66932589  0.60924754  0.74699437     0.06300
H1142       H  0.39024199  0.39123460  0.74742941     0.06100
C1143       C  0.63903173  0.43572134  0.77629791     0.03200
C1144       C  0.63887621  0.40278099  0.77375152    -0.13000
C1145       C  0.66435297  0.39941112  0.74645687     0.00700
C1146       C  0.35620628  0.42931018  0.72029705    -0.11500
C1147       C  0.35686514  0.46274439  0.72118538     0.03200
C1148       C  0.33168876  0.46589516  0.75016618    -0.10900
H1149       H  0.61990302  0.38015198  0.79506930     0.08800
H1150       H  0.37496299  0.42603891  0.69807902     0.06300
H1151       H  0.33190668  0.49135372  0.75195676     0.06100
C1152       C  0.44226187  0.64285607  0.72296490     0.03200
C1153       C  0.40942281  0.64350805  0.72358398    -0.13000
C1154       C  0.40443310  0.66717130  0.75258011     0.00700
C1155       C  0.43116816  0.35989109  0.77343475    -0.11500
C1156       C  0.46437030  0.36052667  0.77458949     0.03200
C1157       C  0.47094005  0.66712530  0.75259667    -0.10900
H1158       H  0.38751244  0.62589597  0.70040925     0.08800
H1159       H  0.42741280  0.37841051  0.79557081     0.06300
H1160       H  0.49629680  0.66709732  0.75264917     0.06100
O1161       O  0.52469983  0.71758293  0.32177619    -0.85300
O1162       O  0.59847959  0.75011308  0.34355522    -0.82300
C1163       C  0.61821841  0.77678938  0.31748683     0.98400
O1164       O  0.61639059  0.80549284  0.32074420    -0.82400
O1165       O  0.58433788  0.84771279  0.34052616    -0.85000
C1166       C  0.55651635  0.84133481  0.31747031     1.02700
O1167       O  0.52741808  0.81150719  0.32274262    -0.77800
O1168       O  0.48751525  0.73718930  0.34013084    -0.78000
C1169       C  0.49489649  0.71684024  0.31591810     1.02600
O1170       O  0.50870806  0.70823188  0.42009923    -0.85300
O1171       O  0.58188518  0.74715454  0.44102594    -0.82400
C1172       C  0.61360531  0.77367785  0.44616933     0.98200
O1173       O  0.62523440  0.80104114  0.42001298    -0.82400
O1174       O  0.58871204  0.83777363  0.43820443    -0.85000
C1175       C  0.56158879  0.84166748  0.44562014     1.02700
O1176       O  0.53284819  0.82389279  0.42228698    -0.77800
O1177       O  0.49603105  0.75036011  0.43890314    -0.78000
C1178       C  0.49095181  0.71873718  0.44423919     1.02600
Cr1179     Cr  0.55374250  0.73509507  0.38140291     1.93700
Cr1180     Cr  0.59933187  0.81898733  0.37968058     1.93200
Cr1181     Cr  0.51498463  0.78045836  0.38080345     1.39100
O1182       O  0.55595269  0.77824688  0.38015998    -1.23000
C1183       C  0.56467034  0.86991506  0.47898533     0.03200
C1184       C  0.53518385  0.86584213  0.50663514    -0.13000
C1185       C  0.53865989  0.89463687  0.03517509     0.00700
C1186       C  0.57191865  0.92790590  0.03387955    -0.11500
C1187       C  0.60129120  0.93232375  0.50630312     0.03200
C1188       C  0.59733271  0.90294967  0.47970411    -0.10900
H1189       H  0.50990899  0.84036198  0.50621535     0.08800
H1190       H  0.57539172  0.95047676  0.05511492     0.06300
H1191       H  0.61938930  0.90640257  0.45732748     0.06100
C1192       C  0.36388897  0.66601443  0.00162112     0.03200
C1193       C  0.36371062  0.69880951  0.00474740    -0.13000
C1194       C  0.33103679  0.69926360  0.00470916     0.00700
C1195       C  0.63652736  0.00064455  0.00016572    -0.11500
C1196       C  0.63621523  0.96755789  0.50437137     0.03200
C1197       C  0.66945950  0.96793933  0.50504359    -0.10900
H1198       H  0.38912128  0.72405441  0.00693714     0.08800
H1199       H  0.61115235  0.00064398  0.99977442     0.06300
H1200       H  0.66937128  0.94260001  0.50795827     0.06100
C1201       C  0.63885247  0.77090443  0.47924043     0.03200
C1202       C  0.63899930  0.73824826  0.47985236    -0.13000
C1203       C  0.66422210  0.73413328  0.50648447     0.00700
C1204       C  0.35602766  0.76333747  0.03369196    -0.11500
C1205       C  0.35674400  0.79683499  0.03421910     0.03200
C1206       C  0.66476255  0.80055593  0.00608338    -0.10900
H1207       H  0.62036442  0.71639925  0.45724761     0.08800
H1208       H  0.37478522  0.75962739  0.05532191     0.06300
H1209       H  0.66495040  0.82602180  0.00530667     0.06100
C1210       C  0.44217129  0.97587430  0.03151454     0.03200
C1211       C  0.47080125  0.99981295  0.50153569    -0.13000
C1212       C  0.46162592  0.69256428  0.47593031     0.00700
C1213       C  0.42864339  0.69233868  0.47653556    -0.11500
C1214       C  0.40446234  0.00031586  0.00179877     0.03200
C1215       C  0.40941449  0.97670659  0.03098384    -0.10900
H1216       H  0.49607982  0.99962928  0.50141007     0.08800
H1217       H  0.42576555  0.71191316  0.45549055     0.06300
H1218       H  0.38754712  0.95926006  0.05431698     0.06100
O1219       O  0.37557655  0.84267794  0.17049764    -0.85300
O1220       O  0.41200260  0.91586322  0.18801095    -0.82300
C1221       C  0.43826830  0.94759817  0.19331092     0.98200
O1222       O  0.46655927  0.95858155  0.16907232    -0.82400
O1223       O  0.50162670  0.92069684  0.19095176    -0.85000
C1224       C  0.50671950  0.89416641  0.19680261     1.02700
O1225       O  0.49123029  0.86669778  0.17078300    -0.77800
O1226       O  0.41793956  0.82978553  0.18813549    -0.78000
C1227       C  0.38670902  0.82554154  0.19487796     1.02600
O1228       O  0.38397447  0.85601126  0.07110968    -0.85300
O1229       O  0.41738315  0.93010470  0.08955429    -0.82400
C1230       C  0.44506002  0.95036002  0.06520529     0.98200
O1231       O  0.47405635  0.94946731  0.07094496    -0.82400
O1232       O  0.51587729  0.91771840  0.09365018    -0.85000
C1233       C  0.50914389  0.89098364  0.06784151     1.02700
O1234       O  0.47875481  0.86208902  0.07128165    -0.77800
O1235       O  0.40424639  0.81960972  0.08998589    -0.78000
C1236       C  0.38320140  0.82614854  0.06617683     1.02600
Cr1237     Cr  0.40153302  0.88646453  0.12960931     1.93700
Cr1238     Cr  0.48557899  0.93232409  0.13093193     1.93200
Cr1239     Cr  0.44770569  0.84846428  0.12977794     1.39100
O1240       O  0.44485524  0.88902073  0.12962435    -1.23000
C1241       C  0.55930924  0.87081226  0.28585554     0.03200
C1242       C  0.53041692  0.86726228  0.25755108    -0.13000
C1243       C  0.53436181  0.89698799  0.23060820     0.00700
C1244       C  0.56719504  0.92960390  0.23147020    -0.11500
C1245       C  0.59644603  0.93350796  0.25810254     0.03200
C1246       C  0.59215735  0.90426188  0.28545534    -0.10900
H1247       H  0.50514391  0.84179624  0.25653278     0.08800
H1248       H  0.57059591  0.95149927  0.20881203     0.06300
H1249       H  0.61462397  0.90790510  0.30704600     0.06100
C1250       C  0.33594254  0.70036741  0.25625037     0.03200
C1251       C  0.63227376  0.00115499  0.25304084    -0.13000
C1252       C  0.63164216  0.96801709  0.25593808     0.00700
C1253       C  0.66452855  0.96801413  0.25492644    -0.11500
C1254       C  0.36925783  0.66721298  0.25268502     0.03200
C1255       C  0.36875258  0.69988445  0.25615591    -0.10900
H1256       H  0.60698458  0.00127378  0.25363804     0.08800
H1257       H  0.66439306  0.94261208  0.25694840     0.06300
H1258       H  0.39409764  0.72519801  0.25836701     0.06100
C1259       C  0.64424811  0.77325059  0.28497117     0.03200
C1260       C  0.64463382  0.74019565  0.28461300    -0.13000
C1261       C  0.66964178  0.73565604  0.25744665     0.00700
C1262       C  0.36160308  0.76480314  0.23052279    -0.11500
C1263       C  0.36158579  0.79762547  0.22872203     0.03200
C1264       C  0.33595603  0.80175489  0.25591733    -0.10900
H1265       H  0.62572143  0.71781957  0.30626608     0.08800
H1266       H  0.38032284  0.76127866  0.20848938     0.06300
H1267       H  0.33584162  0.82706107  0.25473005     0.06100
C1268       C  0.43486992  0.97337184  0.22512252     0.03200
C1269       C  0.40217838  0.97374677  0.22565897    -0.13000
C1270       C  0.39887712  0.00021660  0.25094806     0.00700
C1271       C  0.43307493  0.69078061  0.28156386    -0.11500
C1272       C  0.46650950  0.69137275  0.28221103     0.03200
C1273       C  0.46445551  0.99953522  0.25166903    -0.10900
H1274       H  0.37966687  0.95426949  0.20460089     0.08800
H1275       H  0.42878631  0.70837296  0.30478081     0.06300
H1276       H  0.48972265  0.99929952  0.25194471     0.06100
O1277       O  0.52468680  0.71758282  0.82180957    -0.85300
O1278       O  0.59846471  0.75011012  0.84360525    -0.82300
C1279       C  0.61820364  0.77678498  0.81753330     0.98400
O1280       O  0.61636335  0.80548224  0.82077591    -0.82400
O1281       O  0.58431037  0.84770335  0.84055982    -0.85000
C1282       C  0.55648789  0.84132881  0.81750910     1.02700
O1283       O  0.52738861  0.81150211  0.82278256    -0.77800
O1284       O  0.48749485  0.73718198  0.84016242    -0.78000
C1285       C  0.49488193  0.71683615  0.81595205     1.02600
O1286       O  0.50867389  0.70821640  0.92011794    -0.85300
O1287       O  0.58184882  0.74714429  0.94106871    -0.82400
C1288       C  0.61357245  0.77366269  0.94620134     0.98200
O1289       O  0.62520221  0.80102528  0.92004293    -0.82400
O1290       O  0.58868773  0.83776633  0.93823280    -0.85000
C1291       C  0.56156611  0.84166241  0.94564693     1.02700
O1292       O  0.53282007  0.82388012  0.92232569    -0.77800
O1293       O  0.49599213  0.75033938  0.93893201    -0.78000
C1294       C  0.49090853  0.71871331  0.94425326     1.02600
Cr1295     Cr  0.55371744  0.73508753  0.88143959     1.93700
Cr1296     Cr  0.59930381  0.81897676  0.87971218     1.93200
Cr1297     Cr  0.51495523  0.78044744  0.88083917     1.39100
O1298       O  0.55592444  0.77823752  0.88019564    -1.23000
C1299       C  0.56465367  0.86991822  0.97899857     0.03200
C1300       C  0.53516709  0.86585052  0.00663856    -0.13000
C1301       C  0.53867591  0.89462535  0.53518264     0.00700
C1302       C  0.57193670  0.92789469  0.53388804    -0.11500
C1303       C  0.60127429  0.93233139  0.00630361     0.03200
C1304       C  0.59731814  0.90295269  0.97971538    -0.10900
H1305       H  0.50989175  0.84037063  0.00622208     0.08800
H1306       H  0.57541148  0.95046360  0.55512895     0.06300
H1307       H  0.61937717  0.90640140  0.95734711     0.06100
C1308       C  0.36394380  0.66604718  0.50164243     0.03200
C1309       C  0.36375432  0.69883696  0.50475277    -0.13000
C1310       C  0.33107370  0.69927767  0.50471528     0.00700
C1311       C  0.63654894  0.00063694  0.50017045    -0.11500
C1312       C  0.63619621  0.96756655  0.00437617     0.03200
C1313       C  0.66944127  0.96795092  0.00507158    -0.10900
H1314       H  0.38916054  0.72408736  0.50693277     0.08800
H1315       H  0.61117518  0.00063918  0.49979109     0.06300
H1316       H  0.66935568  0.94261341  0.00799855     0.06100
C1317       C  0.63882298  0.77088585  0.97925980     0.03200
C1318       C  0.63895986  0.73822396  0.97988100    -0.13000
C1319       C  0.66419206  0.73411102  0.00649624     0.00700
C1320       C  0.35603464  0.76333843  0.53370889    -0.11500
C1321       C  0.35673890  0.79682873  0.53424198     0.03200
C1322       C  0.66477606  0.80056797  0.50609107    -0.10900
H1323       H  0.62031125  0.71637028  0.95729296     0.08800
H1324       H  0.37479186  0.75963060  0.55534295     0.06300
H1325       H  0.66495870  0.82603134  0.50532187     0.06100
C1326       C  0.44217100  0.97584390  0.53147129     0.03200
C1327       C  0.47079070  0.99983330  0.00155763    -0.13000
C1328       C  0.46157123  0.69252729  0.97592169     0.00700
C1329       C  0.42858842  0.69230060  0.97652127    -0.11500
C1330       C  0.40447760  0.00030859  0.50176842     0.03200
C1331       C  0.40941345  0.97667501  0.53092653    -0.10900
H1332       H  0.49607103  0.99965324  0.00142679     0.08800
H1333       H  0.42571645  0.71188320  0.95548665     0.06300
H1334       H  0.38753597  0.95921480  0.55423795     0.06100
O1335       O  0.37558467  0.84270412  0.67055284    -0.85300
O1336       O  0.41201787  0.91589686  0.68800391    -0.82300
C1337       C  0.43828034  0.94763624  0.69327482     0.98200
O1338       O  0.46656959  0.95860433  0.66903530    -0.82400
O1339       O  0.50162809  0.92070616  0.69095065    -0.85000
C1340       C  0.50671096  0.89417021  0.69682061     1.02700
O1341       O  0.49122181  0.86669735  0.67080787    -0.77800
O1342       O  0.41793064  0.82977528  0.68814121    -0.78000
C1343       C  0.38670964  0.82554979  0.69490962     1.02600
O1344       O  0.38394885  0.85599349  0.57115223    -0.85300
O1345       O  0.41738215  0.93009103  0.58953291    -0.82400
C1346       C  0.44505708  0.95033463  0.56517290     0.98200
O1347       O  0.47405360  0.94944281  0.57091847    -0.82400
O1348       O  0.51588658  0.91771012  0.59365478    -0.85000
C1349       C  0.50915611  0.89097344  0.56785117     1.02700
O1350       O  0.47876510  0.86208077  0.57129472    -0.77800
O1351       O  0.40425370  0.81961157  0.58998850    -0.78000
C1352       C  0.38319213  0.82614070  0.56620234     1.02600
Cr1353     Cr  0.40153407  0.88647039  0.62962659     1.93700
Cr1354     Cr  0.48558184  0.93232242  0.63091979     1.93200
Cr1355     Cr  0.44770568  0.84846185  0.62978881     1.39100
O1356       O  0.44485522  0.88901973  0.62963115    -1.23000
C1357       C  0.55928303  0.87080906  0.78589690     0.03200
C1358       C  0.53039358  0.86726183  0.75758719    -0.13000
C1359       C  0.53434402  0.89698869  0.73064053     0.00700
C1360       C  0.56717817  0.92960185  0.73150639    -0.11500
C1361       C  0.59642532  0.93350379  0.75814459     0.03200
C1362       C  0.59213325  0.90425771  0.78549935    -0.10900
H1363       H  0.50512001  0.84179650  0.75656480     0.08800
H1364       H  0.57058409  0.95149728  0.70884436     0.06300
H1365       H  0.61459948  0.90790005  0.80709035     0.06100
C1366       C  0.33594404  0.70037200  0.75627709     0.03200
C1367       C  0.63224567  0.00114738  0.75308585    -0.13000
C1368       C  0.63162048  0.96801238  0.75597781     0.00700
C1369       C  0.66450898  0.96801294  0.75493928    -0.11500
C1370       C  0.36925794  0.66721376  0.75269732     0.03200
C1371       C  0.36875379  0.69988672  0.75617683    -0.10900
H1372       H  0.60695435  0.00126151  0.75370186     0.08800
H1373       H  0.66437856  0.94261319  0.75695827     0.06300
H1374       H  0.39409928  0.72519925  0.75839254     0.06100
C1375       C  0.64424904  0.77325314  0.78503485     0.03200
C1376       C  0.64464521  0.74020346  0.78469569    -0.13000
C1377       C  0.66966208  0.73566604  0.75754591     0.00700
C1378       C  0.36160840  0.76481343  0.73056713    -0.11500
C1379       C  0.36158634  0.79763374  0.72875876     0.03200
C1380       C  0.33594821  0.80175760  0.75594440    -0.10900
H1381       H  0.62573028  0.71782753  0.80634704     0.08800
H1382       H  0.38033421  0.76129256  0.70854197     0.06300
H1383       H  0.33583070  0.82706216  0.75475428     0.06100
C1384       C  0.43488148  0.97342357  0.72506542     0.03200
C1385       C  0.40217938  0.97378131  0.72562377    -0.13000
C1386       C  0.39886948  0.00024186  0.75092680     0.00700
C1387       C  0.43306647  0.69077388  0.78159184    -0.11500
C1388       C  0.46650059  0.69136705  0.78224754     0.03200
C1389       C  0.46446745  0.99959575  0.75160266    -0.10900
H1390       H  0.37966436  0.95429449  0.70457918     0.08800
H1391       H  0.42877392  0.70836518  0.80480576     0.06300
H1392       H  0.48974022  0.99937106  0.75186871     0.06100
O1393       O  0.84150166  0.04123840  0.33343647    -0.85300
O1394       O  0.91457737  0.08059117  0.31159738    -0.82300
C1395       C  0.94623361  0.10729899  0.30646865     0.98400
O1396       O  0.95778942  0.13441876  0.33295003    -0.82400
O1397       O  0.92034777  0.17011260  0.31502473    -0.85000
C1398       C  0.89315347  0.17397940  0.30810114     1.02700
O1399       O  0.86481247  0.15658538  0.33227579    -0.77800
O1400       O  0.82884681  0.08346485  0.31506705    -0.78000
C1401       C  0.82382748  0.05192558  0.30950157     1.02600
O1402       O  0.85789909  0.05018625  0.43154212    -0.85300
O1403       O  0.93162004  0.08319353  0.40877642    -0.82400
C1404       C  0.95122683  0.10980700  0.43494496     0.98200
O1405       O  0.94911214  0.13839278  0.43209317    -0.82400
O1406       O  0.91638496  0.18005689  0.41267095    -0.85000
C1407       C  0.88882410  0.17360484  0.43632553     1.02700
O1408       O  0.85983340  0.14362397  0.43172870    -0.77800
O1409       O  0.82041710  0.06950190  0.41356354    -0.78000
C1410       C  0.82804499  0.04932043  0.43770828     1.02600
Cr1411     Cr  0.88665757  0.06803818  0.37159254     1.93700
Cr1412     Cr  0.93166191  0.15181021  0.37345047     1.93200
Cr1413     Cr  0.84747120  0.11300113  0.37334650     1.39100
O1414       O  0.88853553  0.11099179  0.37335761    -1.23000
C1415       C  0.89198094  0.20335362  0.46754032     0.03200
C1416       C  0.86374845  0.20025212  0.49671079    -0.13000
C1417       C  0.86824260  0.23045789  0.02309440     0.00700
C1418       C  0.90117015  0.26323286  0.02065505    -0.11500
C1419       C  0.92986697  0.26649897  0.49315098     0.03200
C1420       C  0.92473288  0.23676449  0.46637434    -0.10900
H1421       H  0.83849886  0.17480605  0.49867592     0.08800
H1422       H  0.90508867  0.28572788  0.04244919     0.06300
H1423       H  0.94661482  0.24005515  0.44384947     0.06100
C1424       C  0.70269671  0.00051866  0.00149308     0.03200
C1425       C  0.70220955  0.03318791  0.99723668    -0.13000
C1426       C  0.66939217  0.03370697  0.99665702     0.00700
C1427       C  0.96742291  0.33445727  0.99409742    -0.11500
C1428       C  0.96559318  0.30066552  0.49313813     0.03200
C1429       C  0.99804329  0.29959452  0.49261036    -0.10900
H1430       H  0.72756348  0.05846981  0.99478228     0.08800
H1431       H  0.94261489  0.33553910  0.99459950     0.06300
H1432       H  0.99703692  0.27373888  0.49204360     0.06100
C1433       C  0.97740918  0.10633004  0.46711353     0.03200
C1434       C  0.97800780  0.07335550  0.46743469    -0.13000
C1435       C  0.00313798  0.06898652  0.49464523     0.00700
C1436       C  0.69498222  0.09829931  0.02158459    -0.11500
C1437       C  0.69474610  0.13100936  0.02318006     0.03200
C1438       C  0.00234548  0.13492800  0.99607108    -0.10900
H1439       H  0.95910375  0.05090473  0.44587699     0.08800
H1440       H  0.71380321  0.09498743  0.04369079     0.06300
H1441       H  0.00208451  0.16016247  0.99725538     0.06100
C1442       C  0.76915772  0.30506221  0.02311261     0.03200
C1443       C  0.79924416  0.33087137  0.49674459    -0.13000
C1444       C  0.79979717  0.02403179  0.47171806     0.00700
C1445       C  0.76646693  0.02368091  0.47257313    -0.11500
C1446       C  0.73276193  0.33020266  0.99297729     0.03200
C1447       C  0.73618248  0.30482923  0.02044763    -0.10900
H1448       H  0.82475786  0.33121160  0.49871463     0.08800
H1449       H  0.76217681  0.04122332  0.44926694     0.06300
H1450       H  0.71362974  0.28601357  0.04199446     0.06100
O1451       O  0.71671903  0.19015754  0.18076985    -0.85300
O1452       O  0.74972191  0.26406931  0.16037438    -0.82300
C1453       C  0.77685773  0.28406451  0.18566076     0.98200
O1454       O  0.80571287  0.28272379  0.18135194    -0.82400
O1455       O  0.84701290  0.25008349  0.16065793    -0.85000
C1456       C  0.84006747  0.22277293  0.18545236     1.02700
O1457       O  0.80980725  0.19395822  0.18117217    -0.77800
O1458       O  0.73574080  0.15290867  0.16079566    -0.78000
C1459       C  0.71543614  0.16001438  0.18544475     1.02600
O1460       O  0.70819795  0.17551103  0.08182140    -0.85300
O1461       O  0.74552495  0.24847765  0.06249209    -0.82400
C1462       C  0.77198609  0.28009780  0.05688945     0.98200
O1463       O  0.79977389  0.29160832  0.08234332    -0.82400
O1464       O  0.83574426  0.25447211  0.06288199    -0.85000
C1465       C  0.84061195  0.22783464  0.05695501     1.02700
O1466       O  0.82419746  0.19995268  0.08217027    -0.77800
O1467       O  0.75124173  0.16405192  0.06284235    -0.78000
C1468       C  0.71970612  0.15905636  0.05677061     1.02600
Cr1469     Cr  0.73424707  0.21987322  0.12162662     1.93700
Cr1470     Cr  0.81818267  0.26554398  0.12203915     1.93200
Cr1471     Cr  0.77991856  0.18159256  0.12199361     1.39100
O1472       O  0.77744956  0.22232099  0.12242837    -1.23000
C1473       C  0.89579241  0.20171961  0.27418557     0.03200
C1474       C  0.86589985  0.19747685  0.24715600    -0.13000
C1475       C  0.86947068  0.22582856  0.21761124     0.00700
C1476       C  0.90302856  0.25850600  0.21703770    -0.11500
C1477       C  0.93251034  0.26327254  0.24424177     0.03200
C1478       C  0.92871224  0.23449111  0.27196222    -0.10900
H1479       H  0.84036813  0.17230116  0.24879422     0.08800
H1480       H  0.90665378  0.28055913  0.19459732     0.06300
H1481       H  0.95104379  0.23824536  0.29398961     0.06100
C1482       C  0.66499551  0.03406026  0.24914257     0.03200
C1483       C  0.96642781  0.33137373  0.24503565    -0.13000
C1484       C  0.96703026  0.29870440  0.24465203     0.00700
C1485       C  0.00064893  0.30002833  0.24537998    -0.11500
C1486       C  0.69763392  0.00058621  0.25104153     0.03200
C1487       C  0.69759783  0.03347825  0.24809031    -0.10900
H1488       H  0.94071630  0.33067612  0.24470232     0.08800
H1489       H  0.00134484  0.27501416  0.24528036     0.06300
H1490       H  0.72303493  0.05865311  0.24537636     0.06100
C1491       C  0.97169657  0.10489366  0.27347600     0.03200
C1492       C  0.97274489  0.07274828  0.27395538    -0.13000
C1493       C  0.99804549  0.06877702  0.24737279     0.00700
C1494       C  0.68936292  0.09786536  0.21950511    -0.11500
C1495       C  0.68937372  0.13100726  0.21809383     0.03200
C1496       C  0.66378676  0.13448561  0.24601239    -0.10900
H1497       H  0.95460569  0.05114049  0.29722561     0.08800
H1498       H  0.70821869  0.09422905  0.19800023     0.06300
H1499       H  0.66336994  0.15965198  0.24608255     0.06100
C1500       C  0.77354148  0.30985274  0.21848066     0.03200
C1501       C  0.74045262  0.30986624  0.21898217    -0.13000
C1502       C  0.73550381  0.33438791  0.24630145     0.00700
C1503       C  0.76204168  0.02638453  0.27639636    -0.11500
C1504       C  0.79472853  0.02610835  0.27767701     0.03200
C1505       C  0.80210047  0.33511400  0.24731753    -0.10900
H1506       H  0.71829984  0.29108734  0.19694458     0.08800
H1507       H  0.75923702  0.04608279  0.29726092     0.06300
H1508       H  0.82761240  0.33539736  0.24810280     0.06100
O1509       O  0.84146757  0.04126108  0.83340552    -0.85300
O1510       O  0.91454267  0.08060524  0.81157856    -0.82300
C1511       C  0.94620373  0.10730851  0.80646557     0.98400
O1512       O  0.95775854  0.13441917  0.83296099    -0.82400
O1513       O  0.92030389  0.17009030  0.81500707    -0.85000
C1514       C  0.89311870  0.17397381  0.80809935     1.02700
O1515       O  0.86478651  0.15660397  0.83229738    -0.77800
O1516       O  0.82881520  0.08349319  0.81505480    -0.78000
C1517       C  0.82380233  0.05195853  0.80946995     1.02600
O1518       O  0.85785650  0.05018701  0.93151881    -0.85300
O1519       O  0.93157637  0.08319548  0.90876685    -0.82400
C1520       C  0.95118218  0.10980705  0.93494040     0.98200
O1521       O  0.94906588  0.13839287  0.93209364    -0.82400
O1522       O  0.91633636  0.18005449  0.91263956    -0.85000
C1523       C  0.88878326  0.17360291  0.93631016     1.02700
O1524       O  0.85979668  0.14361607  0.93174041    -0.77800
O1525       O  0.82037095  0.06949963  0.91354644    -0.78000
C1526       C  0.82800370  0.04932187  0.93769179     1.02600
Cr1527     Cr  0.88661750  0.06804380  0.87157301     1.93700
Cr1528     Cr  0.93162114  0.15180744  0.87344258     1.93200
Cr1529     Cr  0.84743363  0.11300876  0.87334742     1.39100
O1530       O  0.88849539  0.11099399  0.87335117    -1.23000
C1531       C  0.89194810  0.20336134  0.96750472     0.03200
C1532       C  0.86373080  0.20027250  0.99669176    -0.13000
C1533       C  0.86824394  0.23042711  0.52312480     0.00700
C1534       C  0.90117050  0.26320385  0.52071567    -0.11500
C1535       C  0.92985129  0.26651126  0.99307147     0.03200
C1536       C  0.92469890  0.23676915  0.96630408    -0.10900
H1537       H  0.83848172  0.17482746  0.99868165     0.08800
H1538       H  0.90507442  0.28568961  0.54251842     0.06300
H1539       H  0.94656981  0.24005115  0.94376346     0.06100
C1540       C  0.70271708  0.00050576  0.50146326     0.03200
C1541       C  0.70223173  0.03317726  0.49722025    -0.13000
C1542       C  0.66941429  0.03369729  0.49665181     0.00700
C1543       C  0.96741006  0.33445111  0.49423059    -0.11500
C1544       C  0.96558565  0.30066363  0.99303073     0.03200
C1545       C  0.99802368  0.29956967  0.99249903    -0.10900
H1546       H  0.72758546  0.05845961  0.49476802     0.08800
H1547       H  0.94259429  0.33551809  0.49472652     0.06300
H1548       H  0.99700110  0.27370608  0.99195450     0.06100
C1549       C  0.97736805  0.10632858  0.96710348     0.03200
C1550       C  0.97796247  0.07335108  0.96742445    -0.13000
C1551       C  0.00309935  0.06898226  0.99462243     0.00700
C1552       C  0.69498953  0.09828390  0.52159296    -0.11500
C1553       C  0.69474664  0.13099087  0.52318514     0.03200
C1554       C  0.00237643  0.13492719  0.49609058    -0.10900
H1555       H  0.95905043  0.05089859  0.94587558     0.08800
H1556       H  0.71380630  0.09497172  0.54370783     0.06300
H1557       H  0.00211241  0.16016018  0.49727333     0.06100
C1558       C  0.76915730  0.30506152  0.52312803     0.03200
C1559       C  0.79923900  0.33086135  0.99671000    -0.13000
C1560       C  0.79976649  0.02404089  0.97171651     0.00700
C1561       C  0.76643532  0.02368609  0.97257989    -0.11500
C1562       C  0.73277444  0.33022861  0.49303754     0.03200
C1563       C  0.73618710  0.30483742  0.52047759    -0.10900
H1564       H  0.82475661  0.33121048  0.99869139     0.08800
H1565       H  0.76213439  0.04121541  0.94926233     0.06300
H1566       H  0.71363159  0.28601265  0.54201332     0.06100
O1567       O  0.71669597  0.19014755  0.68076389    -0.85300
O1568       O  0.74970788  0.26405699  0.66035703    -0.82300
C1569       C  0.77684615  0.28405943  0.68563486     0.98200
O1570       O  0.80570037  0.28271493  0.68133305    -0.82400
O1571       O  0.84698449  0.25005324  0.66064609    -0.85000
C1572       C  0.84003630  0.22274541  0.68544536     1.02700
O1573       O  0.80977198  0.19393475  0.68118106    -0.77800
O1574       O  0.73570812  0.15289077  0.66079345    -0.78000
C1575       C  0.71540604  0.16000147  0.68544109     1.02600
O1576       O  0.70818438  0.17549355  0.58181679    -0.85300
O1577       O  0.74551473  0.24846447  0.56248121    -0.82400
C1578       C  0.77197937  0.28008412  0.55688427     0.98200
O1579       O  0.79976748  0.29158744  0.58233278    -0.82400
O1580       O  0.83572237  0.25443376  0.56287445    -0.85000
C1581       C  0.84059644  0.22779830  0.55696401     1.02700
O1582       O  0.82417979  0.19992041  0.58218639    -0.77800
O1583       O  0.75123207  0.16403737  0.56284672    -0.78000
C1584       C  0.71969706  0.15903894  0.55677311     1.02600
Cr1585     Cr  0.73423027  0.21985875  0.62161685     1.93700
Cr1586     Cr  0.81816575  0.26551987  0.62202784     1.93200
Cr1587     Cr  0.77989413  0.18157013  0.62199996     1.39100
O1588       O  0.77742990  0.22230134  0.62242476    -1.23000
C1589       C  0.89576115  0.20170484  0.77417344     0.03200
C1590       C  0.86586694  0.19745910  0.74715056    -0.13000
C1591       C  0.86944296  0.22580065  0.71758668     0.00700
C1592       C  0.90300771  0.25846899  0.71697924    -0.11500
C1593       C  0.93248880  0.26324214  0.74418697     0.03200
C1594       C  0.92868628  0.23446960  0.77193015    -0.10900
H1595       H  0.84033019  0.17228971  0.74880976     0.08800
H1596       H  0.90663678  0.28051248  0.69451661     0.06300
H1597       H  0.95101701  0.23822643  0.79396100     0.06100
C1598       C  0.66496201  0.03405349  0.74915731     0.03200
C1599       C  0.96639944  0.33134411  0.74493534    -0.13000
C1600       C  0.96700644  0.29867603  0.74458964     0.00700
C1601       C  0.00062666  0.30000430  0.74535973    -0.11500
C1602       C  0.69760957  0.00058794  0.75102767     0.03200
C1603       C  0.69756532  0.03347566  0.74807780    -0.10900
H1604       H  0.94068709  0.33064423  0.74457304     0.08800
H1605       H  0.00132611  0.27499192  0.74528704     0.06300
H1606       H  0.72299917  0.05865185  0.74534398     0.06100
C1607       C  0.97167499  0.10490323  0.77348751     0.03200
C1608       C  0.97272912  0.07276167  0.77399201    -0.13000
C1609       C  0.99803839  0.06878839  0.74743222     0.00700
C1610       C  0.68932243  0.09785234  0.71950204    -0.11500
C1611       C  0.68933958  0.13099707  0.71809152     0.03200
C1612       C  0.66375790  0.13448063  0.74601533    -0.10900
H1613       H  0.95458672  0.05115909  0.79726606     0.08800
H1614       H  0.70817289  0.09421175  0.69799191     0.06300
H1615       H  0.66334511  0.15964904  0.74608740     0.06100
C1616       C  0.77353154  0.30985984  0.71843393     0.03200
C1617       C  0.74044130  0.30987060  0.71892881    -0.13000
C1618       C  0.73549253  0.33440171  0.74622702     0.00700
C1619       C  0.76202223  0.02641120  0.77635579    -0.11500
C1620       C  0.79471782  0.02615388  0.77762485     0.03200
C1621       C  0.80209118  0.33513260  0.74725829    -0.10900
H1622       H  0.71828619  0.29108054  0.69690311     0.08800
H1623       H  0.75920713  0.04609842  0.79723148     0.06300
H1624       H  0.82760292  0.33541580  0.74805198     0.06100
O1625       O  0.84232409  0.37475082  0.33331403    -0.85300
O1626       O  0.91565388  0.41180836  0.31542910    -0.82300
C1627       C  0.94713268  0.43850108  0.30963812     0.98400
O1628       O  0.95826449  0.46663830  0.33428258    -0.82400
O1629       O  0.92162360  0.50321953  0.31487260    -0.85000
C1630       C  0.89497319  0.50801340  0.30840948     1.02700
O1631       O  0.86661942  0.49091359  0.33254324    -0.77800
O1632       O  0.83087811  0.41762915  0.31323067    -0.78000
C1633       C  0.82582841  0.38598516  0.30784471     1.02600
O1634       O  0.85590288  0.38355258  0.43241371    -0.85300
O1635       O  0.93002012  0.41616922  0.41342468    -0.82400
C1636       C  0.95058810  0.44352296  0.43799983     0.98200
O1637       O  0.94952005  0.47248822  0.43330237    -0.82400
O1638       O  0.91662434  0.51349528  0.41276138    -0.85000
C1639       C  0.88894749  0.50661784  0.43664365     1.02700
O1640       O  0.85993979  0.47662562  0.43140136    -0.77800
O1641       O  0.81899312  0.40256528  0.41084810    -0.78000
C1642       C  0.82565745  0.38217882  0.43592502     1.02600
Cr1643     Cr  0.88630293  0.40086469  0.37383890     1.93700
Cr1644     Cr  0.93220909  0.48496898  0.37395428     1.93200
Cr1645     Cr  0.84809500  0.44663855  0.37232640     1.39100
O1646       O  0.88888516  0.44418536  0.37382808    -1.23000
C1647       C  0.89187257  0.53582997  0.46899754     0.03200
C1648       C  0.86306980  0.53229403  0.49754428    -0.13000
C1649       C  0.86719381  0.56201104  0.02470427     0.00700
C1650       C  0.90013786  0.59453600  0.02393228    -0.11500
C1651       C  0.92929618  0.59846017  0.49708869     0.03200
C1652       C  0.92483405  0.56920021  0.46961443    -0.10900
H1653       H  0.83769656  0.50692181  0.49839396     0.08800
H1654       H  0.90364823  0.61644480  0.04663824     0.06300
H1655       H  0.94722330  0.57285570  0.44786370     0.06100
C1656       C  0.69852413  0.33160287  0.99309699     0.03200
C1657       C  0.69961478  0.36511805  0.99427344    -0.13000
C1658       C  0.66759432  0.36687661  0.99471695     0.00700
C1659       C  0.96495579  0.66624042  0.00167769    -0.11500
C1660       C  0.96445801  0.63313043  0.49867148     0.03200
C1661       C  0.99748052  0.63333665  0.49867567    -0.10900
H1662       H  0.72549244  0.38995164  0.99490087     0.08800
H1663       H  0.93963805  0.66631367  0.00165234     0.06300
H1664       H  0.99745590  0.60799382  0.49658177     0.06100
C1665       C  0.97678378  0.44025673  0.47025305     0.03200
C1666       C  0.97762572  0.40762925  0.46895689    -0.13000
C1667       C  0.00215835  0.40243926  0.49583134     0.00700
C1668       C  0.69391566  0.43086723  0.02394633    -0.11500
C1669       C  0.69385921  0.46370682  0.02692665     0.03200
C1670       C  0.00153256  0.46823131  0.00019925    -0.10900
H1671       H  0.95934376  0.38590981  0.44598961     0.08800
H1672       H  0.71250031  0.42681862  0.04555325     0.06300
H1673       H  0.00121979  0.49340714  0.00234034     0.06100
C1674       C  0.76825663  0.63965504  0.02871344     0.03200
C1675       C  0.79805149  0.66613472  0.50243924    -0.13000
C1676       C  0.79596295  0.35583341  0.46743305     0.00700
C1677       C  0.76251383  0.35509266  0.46640124    -0.11500
C1678       C  0.73202143  0.66599188  0.00185378     0.03200
C1679       C  0.73542684  0.63970740  0.02742638    -0.10900
H1680       H  0.82346744  0.66620341  0.50271994     0.08800
H1681       H  0.75919962  0.37379026  0.44410486     0.06300
H1682       H  0.71284228  0.62014990  0.04830954     0.06100
O1683       O  0.71684299  0.52210979  0.18442150    -0.85300
O1684       O  0.75040592  0.59627153  0.16602581    -0.82300
C1685       C  0.77838141  0.61713081  0.18945403     0.98200
O1686       O  0.80751976  0.61661665  0.18308154    -0.82400
O1687       O  0.84876702  0.58408981  0.16151810    -0.85000
C1688       C  0.84211995  0.55738737  0.18731517     1.02700
O1689       O  0.81181931  0.52841121  0.18388152    -0.77800
O1690       O  0.73750869  0.48606697  0.16566017    -0.78000
C1691       C  0.71635963  0.49238189  0.18942226     1.02600
O1692       O  0.70836746  0.50903401  0.08492493    -0.85300
O1693       O  0.74476664  0.58246995  0.06750561    -0.82400
C1694       C  0.77143710  0.61389087  0.06108988     0.98200
O1695       O  0.80003115  0.62465364  0.08456843    -0.82400
O1696       O  0.83468430  0.58619924  0.06393667    -0.85000
C1697       C  0.83953351  0.55948906  0.05831879     1.02700
O1698       O  0.82379709  0.53211538  0.08439107    -0.77800
O1699       O  0.75027024  0.49535423  0.06769109    -0.78000
C1700       C  0.71914983  0.49141695  0.06091204     1.02600
Cr1701     Cr  0.73446736  0.55276873  0.12586154     1.93700
Cr1702     Cr  0.81868626  0.59850666  0.12356676     1.93200
Cr1703     Cr  0.78053820  0.51454382  0.12561800     1.39100
O1704       O  0.77780697  0.55523950  0.12545390    -1.23000
C1705       C  0.89805622  0.53638695  0.27535503     0.03200
C1706       C  0.86838940  0.53236272  0.24819762    -0.13000
C1707       C  0.87170260  0.56114290  0.21986933     0.00700
C1708       C  0.90493194  0.59441855  0.22099071    -0.11500
C1709       C  0.93447454  0.59885124  0.24816234     0.03200
C1710       C  0.93070321  0.56942274  0.27453736    -0.10900
H1711       H  0.84312236  0.50687390  0.24874829     0.08800
H1712       H  0.90825585  0.61696265  0.19982031     0.06300
H1713       H  0.95285567  0.57279167  0.29664924     0.06100
C1714       C  0.66531452  0.36492308  0.24600755     0.03200
C1715       C  0.96972452  0.66725254  0.25311369    -0.13000
C1716       C  0.96939448  0.63412501  0.24973905     0.00700
C1717       C  0.00266227  0.63455188  0.24937392    -0.11500
C1718       C  0.69995611  0.33328157  0.24626328     0.03200
C1719       C  0.69858656  0.36552564  0.24666441    -0.10900
H1720       H  0.94436234  0.66727716  0.25324102     0.08800
H1721       H  0.00264377  0.60922815  0.24690866     0.06300
H1722       H  0.72356715  0.39125924  0.24739938     0.06100
C1723       C  0.97241399  0.43575019  0.27637816     0.03200
C1724       C  0.97228662  0.40282267  0.27388311    -0.13000
C1725       C  0.99777402  0.39945771  0.24660733     0.00700
C1726       C  0.68948915  0.42930446  0.22027137    -0.11500
C1727       C  0.69013347  0.46273093  0.22114718     0.03200
C1728       C  0.66495399  0.46587758  0.25012683    -0.10900
H1729       H  0.95331849  0.38019818  0.29521123     0.08800
H1730       H  0.70824456  0.42603431  0.19804930     0.06300
H1731       H  0.66516116  0.49133125  0.25190686     0.06100
C1732       C  0.77555789  0.64283325  0.22290833     0.03200
C1733       C  0.74272598  0.64349704  0.22351811    -0.13000
C1734       C  0.73773914  0.66716110  0.25251418     0.00700
C1735       C  0.76450425  0.35990350  0.27342035    -0.11500
C1736       C  0.79770102  0.36052420  0.27459986     0.03200
C1737       C  0.80423346  0.66709055  0.25255543    -0.10900
H1738       H  0.72081726  0.62589268  0.20033593     0.08800
H1739       H  0.76074578  0.37841967  0.29555885     0.06300
H1740       H  0.82958441  0.66705122  0.25261662     0.06100
O1741       O  0.84230650  0.37475679  0.83324098    -0.85300
O1742       O  0.91563292  0.41179804  0.81535662    -0.82300
C1743       C  0.94711415  0.43848668  0.80957037     0.98400
O1744       O  0.95824697  0.46662309  0.83421853    -0.82400
O1745       O  0.92160353  0.50320764  0.81483575    -0.85000
C1746       C  0.89495876  0.50801364  0.80839632     1.02700
O1747       O  0.86661249  0.49092232  0.83254633    -0.77800
O1748       O  0.83086098  0.41764263  0.81319110    -0.78000
C1749       C  0.82581270  0.38600069  0.80778326     1.02600
O1750       O  0.85588656  0.38352665  0.93234466    -0.85300
O1751       O  0.93000574  0.41614805  0.91335287    -0.82400
C1752       C  0.95058177  0.44350228  0.93792501     0.98200
O1753       O  0.94951144  0.47246676  0.93324163    -0.82400
O1754       O  0.91661643  0.51347895  0.91273456    -0.85000
C1755       C  0.88894473  0.50659579  0.93663463     1.02700
O1756       O  0.85993857  0.47660100  0.93139687    -0.77800
O1757       O  0.81897890  0.40254640  0.91079936    -0.78000
C1758       C  0.82564165  0.38215257  0.93586286     1.02600
Cr1759     Cr  0.88628542  0.40085081  0.87377014     1.93700
Cr1760     Cr  0.93219617  0.48495395  0.87390664     1.93200
Cr1761     Cr  0.84808448  0.44663263  0.87230212     1.39100
O1762       O  0.88887155  0.44417294  0.87378105    -1.23000
C1763       C  0.89186980  0.53580618  0.96899617     0.03200
C1764       C  0.86306865  0.53226517  0.99755310    -0.13000
C1765       C  0.86720198  0.56203744  0.52470518     0.00700
C1766       C  0.90015324  0.59455498  0.52395194    -0.11500
C1767       C  0.92928129  0.59844611  0.99706573     0.03200
C1768       C  0.92482560  0.56918295  0.96960154    -0.10900
H1769       H  0.83770053  0.50688824  0.99841388     0.08800
H1770       H  0.90366793  0.61646101  0.54666676     0.06300
H1771       H  0.94721450  0.57284123  0.94784790     0.06100
C1772       C  0.69853241  0.33162140  0.49315987     0.03200
C1773       C  0.69961545  0.36513224  0.49434355    -0.13000
C1774       C  0.66759130  0.36688400  0.49478395     0.00700
C1775       C  0.96497848  0.66625033  0.50169554    -0.11500
C1776       C  0.96443989  0.63312194  0.99864731     0.03200
C1777       C  0.99746473  0.63333311  0.99866279    -0.10900
H1778       H  0.72549063  0.38996833  0.49497436     0.08800
H1779       H  0.93966261  0.66632743  0.50167842     0.06300
H1780       H  0.99744429  0.60799257  0.99656435     0.06100
C1781       C  0.97679236  0.44024164  0.97015540     0.03200
C1782       C  0.97766604  0.40763334  0.96880472    -0.13000
C1783       C  0.00219545  0.40243961  0.99567763     0.00700
C1784       C  0.69392035  0.43088364  0.52397965    -0.11500
C1785       C  0.69387567  0.46372974  0.52692988     0.03200
C1786       C  0.00154818  0.46826229  0.50025590    -0.10900
H1787       H  0.95940203  0.38592593  0.94580897     0.08800
H1788       H  0.71250495  0.42683943  0.54559285     0.06300
H1789       H  0.00126150  0.49345299  0.50235660     0.06100
C1790       C  0.76828234  0.63967926  0.52869689     0.03200
C1791       C  0.79802436  0.66611527  0.00245956    -0.13000
C1792       C  0.79594788  0.35580364  0.96736876     0.00700
C1793       C  0.76249389  0.35505139  0.96632011    -0.11500
C1794       C  0.73205394  0.66602077  0.50183273     0.03200
C1795       C  0.73545560  0.63973595  0.52740774    -0.10900
H1796       H  0.82344235  0.66618805  0.00274071     0.08800
H1797       H  0.75917144  0.37373333  0.94400190     0.06300
H1798       H  0.71287001  0.62018153  0.54829227     0.06100
O1799       O  0.71684414  0.52212534  0.68440625    -0.85300
O1800       O  0.75041296  0.59629147  0.66601988    -0.82300
C1801       C  0.77838550  0.61714149  0.68945919     0.98200
O1802       O  0.80752416  0.61662769  0.68308499    -0.82400
O1803       O  0.84876924  0.58409997  0.66150798    -0.85000
C1804       C  0.84211638  0.55739762  0.68730846     1.02700
O1805       O  0.81181262  0.52842516  0.68387817    -0.77800
O1806       O  0.73750341  0.48608004  0.66562985    -0.78000
C1807       C  0.71635072  0.49239097  0.68939089     1.02600
O1808       O  0.70838263  0.50905940  0.58491408    -0.85300
O1809       O  0.74478388  0.58249535  0.56749445    -0.82400
C1810       C  0.77145613  0.61391592  0.56108129     0.98200
O1811       O  0.80004437  0.62467985  0.58457194    -0.82400
O1812       O  0.83468834  0.58622246  0.56392998    -0.85000
C1813       C  0.83954171  0.55951490  0.55831649     1.02700
O1814       O  0.82381126  0.53214414  0.58439454    -0.77800
O1815       O  0.75029119  0.49538949  0.56767074    -0.78000
C1816       C  0.71916836  0.49144646  0.56089947     1.02600
Cr1817     Cr  0.73447640  0.55279140  0.62585073     1.93700
Cr1818     Cr  0.81869343  0.59852608  0.62356453     1.93200
Cr1819     Cr  0.78054436  0.51456548  0.62560658     1.39100
O1820       O  0.77781408  0.55526072  0.62544702    -1.23000
C1821       C  0.89804248  0.53639083  0.77535088     0.03200
C1822       C  0.86837827  0.53236808  0.74819058    -0.13000
C1823       C  0.87169579  0.56114939  0.71986214     0.00700
C1824       C  0.90492607  0.59442343  0.72098416    -0.11500
C1825       C  0.93446455  0.59885487  0.74816229     0.03200
C1826       C  0.93068967  0.56942606  0.77453911    -0.10900
H1827       H  0.84311079  0.50687959  0.74873801     0.08800
H1828       H  0.90825344  0.61696801  0.69981178     0.06300
H1829       H  0.95283967  0.57279353  0.79665508     0.06100
C1830       C  0.66528191  0.36491055  0.74590763     0.03200
C1831       C  0.96971212  0.66725486  0.75312314    -0.13000
C1832       C  0.96938328  0.63412803  0.74974543     0.00700
C1833       C  0.00265059  0.63455433  0.74938576    -0.11500
C1834       C  0.69993971  0.33328471  0.74618758     0.03200
C1835       C  0.69855936  0.36552332  0.74656304    -0.10900
H1836       H  0.94434974  0.66727918  0.75324524     0.08800
H1837       H  0.00263219  0.60923077  0.74691689     0.06300
H1838       H  0.72353633  0.39126041  0.74728305     0.06100
C1839       C  0.97239527  0.43573278  0.77630909     0.03200
C1840       C  0.97224435  0.40279363  0.77377698    -0.13000
C1841       C  0.99774121  0.39943131  0.74651557     0.00700
C1842       C  0.68944950  0.42929425  0.72018242    -0.11500
C1843       C  0.69010890  0.46272774  0.72109195     0.03200
C1844       C  0.66493544  0.46587246  0.75008816    -0.10900
H1845       H  0.95325634  0.38015987  0.79507602     0.08800
H1846       H  0.70820133  0.42602615  0.69795029     0.06300
H1847       H  0.66515576  0.49133166  0.75189621     0.06100
C1848       C  0.77555743  0.64283043  0.72293307     0.03200
C1849       C  0.74272386  0.64349200  0.72355449    -0.13000
C1850       C  0.73773443  0.66714272  0.75257552     0.00700
C1851       C  0.76449480  0.35993019  0.77333277    -0.11500
C1852       C  0.79769106  0.36054928  0.77452509     0.03200
C1853       C  0.80423148  0.66707867  0.75258876    -0.10900
H1854       H  0.72081723  0.62589783  0.70036309     0.08800
H1855       H  0.76073572  0.37845226  0.79545820     0.06300
H1856       H  0.82958593  0.66704619  0.75263654     0.06100
O1857       O  0.85799192  0.71754873  0.32177523    -0.85300
O1858       O  0.93176901  0.75006213  0.34358858    -0.82300
C1859       C  0.95152886  0.77674924  0.31754579     0.98400
O1860       O  0.94970076  0.80545239  0.32079848    -0.82400
O1861       O  0.91763855  0.84766879  0.34056861    -0.85000
C1862       C  0.88983133  0.84128515  0.31747037     1.02700
O1863       O  0.86073806  0.81144671  0.32270272    -0.77800
O1864       O  0.82079717  0.73713545  0.34015361    -0.78000
C1865       C  0.82818302  0.71679647  0.31592686     1.02600
O1866       O  0.84197716  0.70820476  0.42009425    -0.85300
O1867       O  0.91515193  0.74708009  0.44104990    -0.82400
C1868       C  0.94687389  0.77359817  0.44620304     0.98200
O1869       O  0.95850935  0.80096879  0.42005897    -0.82400
O1870       O  0.92198847  0.83769853  0.43824714    -0.85000
C1871       C  0.89488476  0.84163383  0.44560168     1.02700
O1872       O  0.86616105  0.82388640  0.42222781    -0.77800
O1873       O  0.82933918  0.75036052  0.43890833    -0.78000
C1874       C  0.82424138  0.71873104  0.44424204     1.02600
Cr1875     Cr  0.88702191  0.73504402  0.38141499     1.93700
Cr1876     Cr  0.93262531  0.81893342  0.37972365     1.93200
Cr1877     Cr  0.84828653  0.78042593  0.38078880     1.39100
O1878       O  0.88924571  0.77820003  0.38017289    -1.23000
C1879       C  0.89798014  0.86990410  0.47892810     0.03200
C1880       C  0.86851257  0.86584313  0.50660365    -0.13000
C1881       C  0.87199392  0.89463443  0.03512122     0.00700
C1882       C  0.90524557  0.92790691  0.03377909    -0.11500
C1883       C  0.93461445  0.93232786  0.50617790     0.03200
C1884       C  0.93063898  0.90294181  0.47959211    -0.10900
H1885       H  0.84324096  0.84035910  0.50622394     0.08800
H1886       H  0.90872843  0.95048729  0.05500163     0.06300
H1887       H  0.95268099  0.90638215  0.45719500     0.06100
C1888       C  0.69722047  0.66605055  0.00172613     0.03200
C1889       C  0.69703158  0.69883934  0.00485046    -0.13000
C1890       C  0.66435298  0.69928446  0.00479839     0.00700
C1891       C  0.96985843  0.00063282  0.00002657    -0.11500
C1892       C  0.96954523  0.96755184  0.50423326     0.03200
C1893       C  0.00277858  0.96791344  0.50490901    -0.10900
H1894       H  0.72243933  0.72408714  0.00704096     0.08800
H1895       H  0.94448930  0.00064389  0.99962473     0.06300
H1896       H  0.00267603  0.94256632  0.50781029     0.06100
C1897       C  0.97211905  0.77081995  0.47927344     0.03200
C1898       C  0.97228164  0.73817061  0.47987586    -0.13000
C1899       C  0.99752038  0.73406994  0.50649684     0.00700
C1900       C  0.68934895  0.76336335  0.03374636    -0.11500
C1901       C  0.69009828  0.79687613  0.03422091     0.03200
C1902       C  0.99802499  0.80048588  0.00615621    -0.10900
H1903       H  0.95364809  0.71631876  0.45727383     0.08800
H1904       H  0.70809201  0.75964726  0.05539924     0.06300
H1905       H  0.99820024  0.82594571  0.00539423     0.06100
C1906       C  0.77557338  0.97592839  0.03151052     0.03200
C1907       C  0.80419850  0.99986076  0.50152844    -0.13000
C1908       C  0.79492119  0.69257448  0.47594210     0.00700
C1909       C  0.76195027  0.69237115  0.47658325    -0.11500
C1910       C  0.73784842  0.00036257  0.00182103     0.03200
C1911       C  0.74281479  0.97675955  0.03100003    -0.10900
H1912       H  0.82947814  0.99967923  0.50138961     0.08800
H1913       H  0.75907804  0.71195885  0.45556032     0.06300
H1914       H  0.72095496  0.95931511  0.05434368     0.06100
O1915       O  0.70895318  0.84271467  0.17044102    -0.85300
O1916       O  0.74539063  0.91589973  0.18798172    -0.82300
C1917       C  0.77165816  0.94763393  0.19327823     0.98200
O1918       O  0.79995402  0.95861084  0.16905200    -0.82400
O1919       O  0.83499260  0.92069852  0.19094321    -0.85000
C1920       C  0.84007588  0.89416152  0.19679347     1.02700
O1921       O  0.82459790  0.86670513  0.17075239    -0.77800
O1922       O  0.75131264  0.82982534  0.18811515    -0.78000
C1923       C  0.72007809  0.82557613  0.19483039     1.02600
O1924       O  0.71737147  0.85607136  0.07106462    -0.85300
O1925       O  0.75079034  0.93015756  0.08953926    -0.82400
C1926       C  0.77846753  0.95041141  0.06519240     0.98200
O1927       O  0.80746104  0.94951065  0.07092819    -0.82400
O1928       O  0.84925272  0.91772418  0.09363641    -0.85000
C1929       C  0.84249909  0.89099084  0.06781244     1.02700
O1930       O  0.81210540  0.86210350  0.07125415    -0.77800
O1931       O  0.73760318  0.81964458  0.08997809    -0.78000
C1932       C  0.71657240  0.82619497  0.06615572     1.02600
Cr1933     Cr  0.73492309  0.88650996  0.12957474     1.93700
Cr1934     Cr  0.81896775  0.93234736  0.13091689     1.93200
Cr1935     Cr  0.78107106  0.84848860  0.12975538     1.39100
O1936       O  0.77823722  0.88905301  0.12959944    -1.23000
C1937       C  0.89263092  0.87077083  0.28586618     0.03200
C1938       C  0.86374880  0.86722686  0.25754217    -0.13000
C1939       C  0.86769839  0.89696561  0.23062251     0.00700
C1940       C  0.90052372  0.92958601  0.23152942    -0.11500
C1941       C  0.92976569  0.93348254  0.25817307     0.03200
C1942       C  0.92547400  0.90422536  0.28550291    -0.10900
H1943       H  0.83848077  0.84175707  0.25649267     0.08800
H1944       H  0.90392977  0.95149105  0.20888697     0.06300
H1945       H  0.94793500  0.90786301  0.30710139     0.06100
C1946       C  0.66925400  0.70036873  0.25612137     0.03200
C1947       C  0.96559497  0.00112977  0.25311035    -0.13000
C1948       C  0.96496146  0.96799072  0.25601801     0.00700
C1949       C  0.99784528  0.96798432  0.25499090    -0.11500
C1950       C  0.70256515  0.66720611  0.25261408     0.03200
C1951       C  0.70206339  0.69988187  0.25604381    -0.10900
H1952       H  0.94030709  0.00125079  0.25372052     0.08800
H1953       H  0.99771087  0.94258282  0.25701690     0.06300
H1954       H  0.72741087  0.72519372  0.25824644     0.06100
C1955       C  0.97758202  0.77322423  0.28506393     0.03200
C1956       C  0.97798028  0.74017668  0.28472304    -0.13000
C1957       C  0.00299222  0.73564197  0.25756213     0.00700
C1958       C  0.69493244  0.76481395  0.23041093    -0.11500
C1959       C  0.69493983  0.79764975  0.22864482     0.03200
C1960       C  0.66932144  0.80178927  0.25584722    -0.10900
H1961       H  0.95906749  0.71779879  0.30637361     0.08800
H1962       H  0.71365030  0.76128827  0.20837500     0.06300
H1963       H  0.66923195  0.82710869  0.25468829     0.06100
C1964       C  0.76825741  0.97341616  0.22506566     0.03200
C1965       C  0.73557744  0.97381469  0.22555603    -0.13000
C1966       C  0.73227672  0.00029124  0.25083089     0.00700
C1967       C  0.76637104  0.69075720  0.28153695    -0.11500
C1968       C  0.79979938  0.69133514  0.28221023     0.03200
C1969       C  0.79783468  0.99956589  0.25163230    -0.10900
H1970       H  0.71307354  0.95434519  0.20448099     0.08800
H1971       H  0.76208179  0.70835524  0.30474263     0.06300
H1972       H  0.82309247  0.99931182  0.25194098     0.06100
O1973       O  0.85798436  0.71752838  0.82182594    -0.85300
O1974       O  0.93176499  0.75006441  0.84363454    -0.82300
C1975       C  0.95151154  0.77674652  0.81757344     0.98400
O1976       O  0.94967361  0.80544471  0.82082047    -0.82400
O1977       O  0.91761658  0.84766357  0.84061525    -0.85000
C1978       C  0.88981232  0.84128173  0.81751303     1.02700
O1979       O  0.86072196  0.81143835  0.82273099    -0.77800
O1980       O  0.82079217  0.73712493  0.84017879    -0.78000
C1981       C  0.82817683  0.71677692  0.81597034     1.02600
O1982       O  0.84196407  0.70819594  0.92013855    -0.85300
O1983       O  0.91513279  0.74708859  0.94110298    -0.82400
C1984       C  0.94685805  0.77360161  0.94624230     0.98200
O1985       O  0.95849686  0.80096211  0.92007958    -0.82400
O1986       O  0.92196754  0.83768177  0.93828190    -0.85000
C1987       C  0.89486408  0.84161855  0.94563006     1.02700
O1988       O  0.86614022  0.82387102  0.92225576    -0.77800
O1989       O  0.82930645  0.75034204  0.93892979    -0.78000
C1990       C  0.82421481  0.71871528  0.94427037     1.02600
Cr1991     Cr  0.88701137  0.73503852  0.88146273     1.93700
Cr1992     Cr  0.93260532  0.81892425  0.87975469     1.93200
Cr1993     Cr  0.84826702  0.78041303  0.88081507     1.39100
O1994       O  0.88922730  0.77819005  0.88020682    -1.23000
C1995       C  0.89795934  0.86989168  0.97894646     0.03200
C1996       C  0.86848852  0.86583263  0.00660885    -0.13000
C1997       C  0.87202275  0.89464068  0.53513329     0.00700
C1998       C  0.90527909  0.92791149  0.53379316    -0.11500
C1999       C  0.93458377  0.93232114  0.00617741     0.03200
C2000       C  0.93061669  0.90293118  0.97960766    -0.10900
H2001       H  0.84321832  0.84034706  0.00623247     0.08800
H2002       H  0.90876687  0.95048882  0.55502635     0.06300
H2003       H  0.95266300  0.90636985  0.95722062     0.06100
C2004       C  0.69725461  0.66608038  0.50170304     0.03200
C2005       C  0.69706644  0.69886891  0.50483187    -0.13000
C2006       C  0.66438729  0.69931167  0.50478327     0.00700
C2007       C  0.96989759  0.00064083  0.50004835    -0.11500
C2008       C  0.96950965  0.96754631  0.00423692     0.03200
C2009       C  0.00274265  0.96791006  0.00494836    -0.10900
H2010       H  0.72247364  0.72411746  0.50702443     0.08800
H2011       H  0.94453009  0.00065552  0.49966642     0.06300
H2012       H  0.00264150  0.94256470  0.00787346     0.06100
C2013       C  0.97210179  0.77082123  0.97930974     0.03200
C2014       C  0.97225960  0.73816969  0.97990657    -0.13000
C2015       C  0.99749596  0.73406303  0.00652296     0.00700
C2016       C  0.68936213  0.76337563  0.53375868    -0.11500
C2017       C  0.69010514  0.79688416  0.53424201     0.03200
C2018       C  0.99803939  0.80048666  0.50612095    -0.10900
H2019       H  0.95362506  0.71632163  0.95730067     0.08800
H2020       H  0.70809754  0.75965435  0.55542123     0.06300
H2021       H  0.99821124  0.82594477  0.50535763     0.06100
C2022       C  0.77558089  0.97589817  0.53148346     0.03200
C2023       C  0.80418056  0.99988272  0.00153696    -0.13000
C2024       C  0.79489128  0.69255396  0.97596471     0.00700
C2025       C  0.76191702  0.69234467  0.97660398    -0.11500
C2026       C  0.73786747  0.00034461  0.50179069     0.03200
C2027       C  0.74282177  0.97672694  0.53095605    -0.10900
H2028       H  0.82946017  0.99970126  0.00138703     0.08800
H2029       H  0.75904257  0.71193095  0.95558109     0.06300
H2030       H  0.72095457  0.95927401  0.55428472     0.06100
O2031       O  0.70897067  0.84273858  0.67052234    -0.85300
O2032       O  0.74541735  0.91592839  0.68799996    -0.82300
C2033       C  0.77167590  0.94767040  0.69325726     0.98200
O2034       O  0.79996861  0.95863578  0.66902617    -0.82400
O2035       O  0.83500825  0.92071845  0.69095512    -0.85000
C2036       C  0.84008300  0.89417681  0.69682353     1.02700
O2037       O  0.82460194  0.86671351  0.67079234    -0.77800
O2038       O  0.75131108  0.82980634  0.68812987    -0.78000
C2039       C  0.72008790  0.82557866  0.69488286     1.02600
O2040       O  0.71735136  0.85605880  0.57112829    -0.85300
O2041       O  0.75079826  0.93014826  0.58954347    -0.82400
C2042       C  0.77847194  0.95038796  0.56517984     0.98200
O2043       O  0.80746467  0.94948624  0.57091673    -0.82400
O2044       O  0.84927733  0.91772849  0.59365703    -0.85000
C2045       C  0.84252600  0.89099610  0.56783271     1.02700
O2046       O  0.81213058  0.86211012  0.57127729    -0.77800
O2047       O  0.73762408  0.81965437  0.58998149    -0.78000
C2048       C  0.71657340  0.82619581  0.56618912     1.02600
Cr2049     Cr  0.73493295  0.88651639  0.62961580     1.93700
Cr2050     Cr  0.81897997  0.93235124  0.63091957     1.93200
Cr2051     Cr  0.78108323  0.84849109  0.62977609     1.39100
O2052       O  0.77824717  0.88905507  0.62962376    -1.23000
C2053       C  0.89261469  0.87077544  0.78592224     0.03200
C2054       C  0.86374077  0.86723493  0.75758357    -0.13000
C2055       C  0.86769587  0.89697864  0.73066946     0.00700
C2056       C  0.90051907  0.92960098  0.73159853    -0.11500
C2057       C  0.92975338  0.93349416  0.75825715     0.03200
C2058       C  0.92545554  0.90423288  0.78558187    -0.10900
H2059       H  0.83847555  0.84176309  0.75651620     0.08800
H2060       H  0.90393153  0.95151017  0.70895959     0.06300
H2061       H  0.94791194  0.90786870  0.80718903     0.06100
C2062       C  0.66926779  0.70037369  0.75621897     0.03200
C2063       C  0.96558616  0.00114045  0.75320874    -0.13000
C2064       C  0.96495099  0.96800034  0.75611049     0.00700
C2065       C  0.99783290  0.96798988  0.75506026    -0.11500
C2066       C  0.70256723  0.66719870  0.75268476     0.03200
C2067       C  0.70207309  0.69987821  0.75614070    -0.10900
H2068       H  0.94029802  0.00126046  0.75382804     0.08800
H2069       H  0.99769739  0.94258746  0.75707914     0.06300
H2070       H  0.72742317  0.72518642  0.75835674     0.06100
C2071       C  0.97756218  0.77322325  0.78507829     0.03200
C2072       C  0.97796622  0.74017866  0.78474170    -0.13000
C2073       C  0.00297624  0.73564367  0.75757646     0.00700
C2074       C  0.69495667  0.76482504  0.73051132    -0.11500
C2075       C  0.69495306  0.79765627  0.72871673     0.03200
C2076       C  0.66932336  0.80179062  0.75590583    -0.10900
H2077       H  0.95905923  0.71780261  0.80639955     0.08800
H2078       H  0.71368134  0.76129984  0.70848953     0.06300
H2079       H  0.66922333  0.82710429  0.75472970     0.06100
C2080       C  0.76826727  0.97346488  0.72501309     0.03200
C2081       C  0.73557420  0.97384114  0.72551582    -0.13000
C2082       C  0.73226021  0.00030838  0.75079656     0.00700
C2083       C  0.76636009  0.69072125  0.78161326    -0.11500
C2084       C  0.79979231  0.69130929  0.78226426     0.03200
C2085       C  0.79784113  0.99962734  0.75156880    -0.10900
H2086       H  0.71306879  0.95435818  0.70445483     0.08800
H2087       H  0.76206453  0.70830352  0.80484110     0.06300
H2088       H  0.82310609  0.99938726  0.75187448     0.06100
loop_ 
_geom_bond_atom_site_label_1 
_geom_bond_atom_site_label_2 
_geom_bond_distance 
_geom_bond_site_symmetry_2 
_ccdc_geom_bond_type 
O1          Cr19   1.999       .  S
O1            C9   1.259       .  A
O2          Cr19   1.997       .  S
O2            C3   1.267       .  A
C3            O4   1.257       .  A
C3           C99   1.478       .  S
O4          Cr20   1.988       .  S
O5          Cr20   1.997       .  S
O5            C6   1.267       .  A
C6            O7   1.261       .  A
C6           C81   1.488       .  S
O7          Cr21   2.000       .  S
O8          Cr21   1.993       .  S
O8            C9   1.263       .  A
C9          C112   1.486       .  S
O10         Cr19   2.016       .  S
O10          C18   1.268       .  A
O11         Cr19   1.995       .  S
O11          C12   1.263       .  A
C12          O13   1.270       .  A
C12          C41   1.508       .  S
O13         Cr20   2.024       .  S
O14         Cr20   1.978       .  S
O14          C15   1.261       .  A
C15          O16   1.266       .  A
C15          C23   1.500       .  S
O16         Cr21   2.015       .  S
O17         Cr21   1.987       .  S
O17          C18   1.265       .  A
C18          C52   1.502       .  S
Cr19         O22   1.795       .  S
Cr20         O22   1.793       .  S
Cr21         O22   1.797       .  S
C23          C24   1.414       .  A
C23          C28   1.412       .  A
C24         C141   1.419       .  A
C24          H29   1.083       .  S
C25          C73   1.483       .  S
C25          C26   1.404       .  A
C25         C140   1.419   1_554  A
C26         C143   1.401   1_554  A
C26          H30   1.084       .  S
C27          C36   1.492       .  S
C27          C28   1.401       .  A
C27         C142   1.401       .  A
C28          H31   1.083       .  S
C32         C518   1.504       .  S
C32          C33   1.410   1_554  A
C32        C2009   1.408   1_545  A
C33          C34   1.412       .  A
C33          H38   1.083       .  S
C34        C1551   1.500       .  S
C34        C1891   1.410   1_456  A
C35         C962   1.407       .  A
C35         C152   1.405       .  A
C35          H39   1.083       .  S
C36          C37   1.408       .  A
C36         C151   1.405       .  A
C37        C1076   1.406       .  A
C37          H40   1.083       .  S
C41          C42   1.420       .  A
C41         C162   1.416       .  A
C42          C43   1.409       .  A
C42          H47   1.083       .  S
C43         C846   1.499       .  S
C43         C856   1.401       .  A
C44          C45   1.402       .  A
C44        C1551   1.401   1_554  A
C44          H48   1.084       .  S
C45          C76   1.486       .  S
C45        C1438   1.419   1_554  A
C46         C157   1.416       .  A
C46         C741   1.419   1_556  A
C46          H49   1.083       .  S
C50          C70   1.484       .  S
C50          C55   1.404       .  A
C50         C167   1.418   1_554  A
C51         C166   1.418       .  A
C51         C284   1.414       .  A
C51          H56   1.083       .  S
C52          C53   1.415       .  A
C52         C515   1.419   1_545  A
C53         C634   1.399       .  A
C53          H57   1.082       .  S
C54         C264   1.492       .  S
C54          C55   1.401   1_556  A
C54         C401   1.402       .  A
C55          H58   1.084       .  S
O59         Cr77   2.014       .  S
O59          C67   1.267       .  A
O60         Cr77   1.992       .  S
O60          C61   1.265       .  A
C61          O62   1.267       .  A
C61         C108   1.504       .  S
O62         Cr78   2.016       .  S
O63         Cr78   1.993       .  S
O63          C64   1.265       .  A
C64          O65   1.267       .  A
C64          C83   1.505       .  S
O65         Cr79   2.018       .  S
O66         Cr79   1.991       .  S
O66          C67   1.264       .  A
C67         C103   1.502       .  S
O68         Cr77   2.000       .  S
O68          C76   1.260       .  A
O69         Cr77   1.992       .  S
O69          C70   1.264       .  A
C70          O71   1.261       .  A
O71         Cr78   2.002       .  S
O72         Cr78   1.994       .  S
O72          C73   1.265       .  A
C73          O74   1.260       .  A
O74         Cr79   1.997       .  S
O75         Cr79   1.995       .  S
O75          C76   1.265       .  A
Cr77         O80   1.794       .  S
Cr78         O80   1.794       .  S
Cr79         O80   1.793       .  S
C81          C82   1.422       .  A
C81          C86   1.403       .  A
C82          C83   1.418       .  A
C82          H87   1.083       .  S
C83          C84   1.414       .  A
C84          C85   1.403       .  A
C84          H88   1.083       .  S
C85          C92   1.493       .  S
C85          C86   1.400       .  A
C86          H89   1.084       .  S
C90        C1493   1.490       .  S
C90          C95   1.404   1_655  A
C90        C1947   1.405       .  A
C91          C92   1.407       .  A
C91        C1018   1.406       .  A
C91          H96   1.083       .  S
C92          C93   1.408       .  A
C93        C1022   1.408       .  A
C93          H97   1.083       .  S
C94         C574   1.485       .  S
C94          C95   1.407       .  A
C94        C1949   1.406   1_445  A
C95          H98   1.083       .  S
C99         C100   1.395       .  A
C99         C800   1.419       .  A
C100        C101   1.397       .  A
C100        H105   1.084       .  S
C101        C786   1.490       .  S
C101        C798   1.404       .  A
C102        C103   1.415       .  A
C102       C1493   1.403   1_455  A
C102        H106   1.082       .  S
C103        C104   1.417   1_455  A
C104       C1491   1.419       .  A
C104        H107   1.083       .  S
C108        C109   1.413       .  A
C108        C113   1.417       .  A
C109        C110   1.402       .  A
C109        H114   1.083       .  S
C110        C326   1.494       .  S
C110        C343   1.402       .  A
C111        C112   1.401       .  A
C111        C574   1.403       .  A
C111        H115   1.084       .  S
C112        C577   1.415   1_545  A
C113        C344   1.421       .  A
C113        H116   1.083       .  S
O117       Cr135   1.999       .  S
O117        C125   1.259       .  A
O118       Cr135   1.997       .  S
O118        C119   1.267       .  A
C119        O120   1.257       .  A
C119        C215   1.478       .  S
O120       Cr136   1.988       .  S
O121       Cr136   1.997       .  S
O121        C122   1.267       .  A
C122        O123   1.261       .  A
C122        C197   1.488       .  S
O123       Cr137   2.000       .  S
O124       Cr137   1.993       .  S
O124        C125   1.263       .  A
C125        C228   1.486       .  S
O126       Cr135   2.016       .  S
O126        C134   1.268       .  A
O127       Cr135   1.995       .  S
O127        C128   1.263       .  A
C128        O129   1.270       .  A
C128        C157   1.508       .  S
O129       Cr136   2.024       .  S
O130       Cr136   1.978       .  S
O130        C131   1.261       .  A
C131        O132   1.266       .  A
C131        C139   1.500       .  S
O132       Cr137   2.015       .  S
O133       Cr137   1.987       .  S
O133        C134   1.265       .  A
C134        C168   1.501       .  S
Cr135       O138   1.795       .  S
Cr136       O138   1.793       .  S
Cr137       O138   1.797       .  S
C139        C140   1.414       .  A
C139        C144   1.412       .  A
C140        H145   1.083       .  S
C141        C189   1.484       .  S
C141        C142   1.404       .  A
C142        H146   1.084       .  S
C143        C152   1.492       .  S
C143        C144   1.401       .  A
C144        H147   1.083       .  S
C148        C634   1.504       .  S
C148        C149   1.410       .  A
C148       C1893   1.408   1_545  A
C149        C150   1.412       .  A
C149        H154   1.083       .  S
C150       C1435   1.499       .  S
C150       C2007   1.410   1_455  A
C151       C1078   1.407       .  A
C151        H155   1.083       .  S
C152        C153   1.408       .  A
C153        C960   1.406       .  A
C153        H156   1.083       .  S
C157        C158   1.420       .  A
C158        C159   1.409       .  A
C158        H163   1.083       .  S
C159        C730   1.499       .  S
C159        C740   1.401   1_556  A
C160       C1435   1.401       .  A
C160        C161   1.402       .  A
C160        H164   1.084       .  S
C161        C192   1.486       .  S
C161       C1554   1.419       .  A
C162        C857   1.419       .  A
C162        H165   1.083       .  S
C166        C186   1.484       .  S
C166        C171   1.404       .  A
C167        C400   1.414       .  A
C167        H172   1.083       .  S
C168        C631   1.419   1_546  A
C168        C169   1.415       .  A
C169        C518   1.399   1_556  A
C169        H173   1.082       .  S
C170        C380   1.492       .  S
C170        C285   1.402       .  A
C170        C171   1.401       .  A
C171        H174   1.084       .  S
O175       Cr193   2.014       .  S
O175        C183   1.267       .  A
O176       Cr193   1.991       .  S
O176        C177   1.265       .  A
C177        O178   1.267       .  A
C177        C224   1.504       .  S
O178       Cr194   2.016       .  S
O179       Cr194   1.993       .  S
O179        C180   1.265       .  A
C180        O181   1.267       .  A
C180        C199   1.505       .  S
O181       Cr195   2.018       .  S
O182       Cr195   1.992       .  S
O182        C183   1.264       .  A
C183        C219   1.502       .  S
O184       Cr193   2.000       .  S
O184        C192   1.260       .  A
O185       Cr193   1.992       .  S
O185        C186   1.264       .  A
C186        O187   1.261       .  A
O187       Cr194   2.001       .  S
O188       Cr194   1.994       .  S
O188        C189   1.265       .  A
C189        O190   1.260       .  A
O190       Cr195   1.998       .  S
O191       Cr195   1.994       .  S
O191        C192   1.265       .  A
Cr193       O196   1.794       .  S
Cr194       O196   1.794       .  S
Cr195       O196   1.793       .  S
C197        C198   1.422       .  A
C197        C202   1.403       .  A
C198        C199   1.418       .  A
C198        H203   1.083       .  S
C199        C200   1.414       .  A
C200        C201   1.403       .  A
C200        H204   1.083       .  S
C201        C208   1.493       .  S
C201        C202   1.400       .  A
C202        H205   1.084       .  S
C206       C1609   1.490       .  S
C206       C2063   1.405       .  A
C206        C211   1.404   1_655  A
C207       C1134   1.406       .  A
C207        C208   1.407       .  A
C207        H212   1.083       .  S
C208        C209   1.407       .  A
C209       C1138   1.408       .  A
C209        H213   1.083       .  S
C210        C690   1.485       .  S
C210       C2065   1.406   1_445  A
C210        C211   1.407       .  A
C211        H214   1.083       .  S
C215        C216   1.395       .  A
C215        C916   1.419       .  A
C216        C217   1.397       .  A
C216        H221   1.084       .  S
C217        C902   1.490       .  S
C217        C914   1.404       .  A
C218       C1609   1.404   1_455  A
C218        C219   1.415       .  A
C218        H222   1.082       .  S
C219        C220   1.417   1_455  A
C220       C1607   1.419       .  A
C220        H223   1.083       .  S
C224        C225   1.413       .  A
C224        C229   1.417       .  A
C225        C226   1.402       .  A
C225        H230   1.083       .  S
C226        C442   1.494       .  S
C226        C459   1.402       .  A
C227        C690   1.403       .  A
C227        C228   1.401       .  A
C227        H231   1.084       .  S
C228        C693   1.415   1_545  A
C229        C460   1.421       .  A
C229        H232   1.083       .  S
O233       Cr251   2.001       .  S
O233        C241   1.261       .  A
O234       Cr251   1.992       .  S
O234        C235   1.264       .  A
C235        O236   1.261       .  A
C235        C331   1.484       .  S
O236       Cr252   1.999       .  S
O237       Cr252   1.998       .  S
O237        C238   1.266       .  A
C238        O239   1.259       .  A
C238        C313   1.487       .  S
O239       Cr253   1.996       .  S
O240       Cr253   1.999       .  S
O240        C241   1.266       .  A
C241        C344   1.488       .  S
O242       Cr251   2.013       .  S
O242        C250   1.266       .  A
O243       Cr251   1.990       .  S
O243        C244   1.264       .  A
C244        O245   1.267       .  A
C244        C273   1.506       .  S
O245       Cr252   2.019       .  S
O246       Cr252   1.989       .  S
O246        C247   1.264       .  A
C247        O248   1.268       .  A
C247        C255   1.504       .  S
O248       Cr253   2.019       .  S
O249       Cr253   1.987       .  S
O249        C250   1.263       .  A
C250        C284   1.500       .  S
Cr251       O254   1.796       .  S
Cr252       O254   1.797       .  S
Cr253       O254   1.796       .  S
C255        C256   1.418       .  A
C255        C260   1.415       .  A
C256        C373   1.420       .  A
C256        H261   1.083       .  S
C257        C305   1.481       .  S
C257        C372   1.420   1_554  A
C257        C258   1.397       .  A
C258        C375   1.397   1_554  A
C258        H262   1.084       .  S
C259        C268   1.491       .  S
C259        C374   1.397       .  A
C259        C260   1.404       .  A
C260        H263   1.083       .  S
C264        C265   1.408       .  A
C264       C1545   1.406   1_455  A
C265        C266   1.406       .  A
C265        H270   1.083       .  S
C266       C1783   1.492       .  S
C266       C1427   1.407   1_455  A
C267       C1194   1.405       .  A
C267        C384   1.405   1_554  A
C267        H271   1.082       .  S
C268        C383   1.405       .  A
C268        C269   1.405       .  A
C269       C1308   1.407       .  A
C269        H272   1.083       .  S
C273        C274   1.411       .  A
C273        C394   1.418       .  A
C274        C275   1.401       .  A
C274        H279   1.083       .  S
C275       C1078   1.492       .  S
C275       C1088   1.401       .  A
C276       C1783   1.401   1_554  A
C276        C277   1.405       .  A
C276        H280   1.084       .  S
C277        C308   1.491       .  S
C277       C1670   1.424       .  A
C278        C389   1.418   1_554  A
C278        C973   1.424       .  A
C278        H281   1.083       .  S
C282        C302   1.492       .  S
C282        C399   1.419       .  A
C282        C287   1.403       .  A
C283        C398   1.419       .  A
C283        C516   1.418       .  A
C283        H288   1.083       .  S
C284        C285   1.412       .  A
C285        H289   1.083       .  S
C286        C496   1.487       .  S
C286        C633   1.405   1_554  A
C286        C287   1.405       .  A
C287        H290   1.084       .  S
O291       Cr309   2.018       .  S
O291        C299   1.267       .  A
O292       Cr309   1.989       .  S
O292        C293   1.265       .  A
C293        O294   1.268       .  A
C293        C340   1.503       .  S
O294       Cr310   2.016       .  S
O295       Cr310   1.996       .  S
O295        C296   1.263       .  A
C296        O297   1.269       .  A
C296        C315   1.509       .  S
O297       Cr311   2.024       .  S
O298       Cr311   1.979       .  S
O298        C299   1.260       .  A
C299        C335   1.501       .  S
O300       Cr309   2.001       .  S
O300        C308   1.261       .  A
O301       Cr309   2.001       .  S
O301        C302   1.265       .  A
C302        O303   1.260       .  A
O303       Cr310   2.000       .  S
O304       Cr310   1.996       .  S
O304        C305   1.266       .  A
C305        O306   1.258       .  A
O306       Cr311   1.991       .  S
O307       Cr311   2.001       .  S
O307        C308   1.267       .  A
Cr309       O312   1.799       .  S
Cr310       O312   1.798       .  S
Cr311       O312   1.798       .  S
C313        C314   1.419       .  A
C313        C318   1.402       .  A
C314        C315   1.416       .  A
C314        H319   1.083       .  S
C315        C316   1.419       .  A
C316        C317   1.409       .  A
C316        H320   1.083       .  S
C317        C324   1.498       .  S
C317        C318   1.402       .  A
C318        H321   1.084       .  S
C322       C1725   1.493       .  S
C322       C1483   1.406       .  A
C322        C327   1.407   1_655  A
C323       C1250   1.410       .  A
C323        C324   1.410       .  A
C323        H328   1.083       .  S
C324        C325   1.411       .  A
C325       C1254   1.408       .  A
C325        H329   1.083       .  S
C326       C1485   1.408       .  A
C326        C327   1.406       .  A
C327        H330   1.083       .  S
C331        C332   1.404       .  A
C331       C1032   1.418       .  A
C332        C333   1.401       .  A
C332        H337   1.084       .  S
C333       C1018   1.493       .  S
C333       C1030   1.403       .  A
C334       C1725   1.402   1_455  A
C334        C335   1.413       .  A
C334        H338   1.083       .  S
C335        C336   1.414   1_455  A
C336       C1723   1.418       .  A
C336        H339   1.083       .  S
C340        C341   1.416       .  A
C340        C345   1.419       .  A
C341        C342   1.401       .  A
C341        H346   1.083       .  S
C342        C558   1.502       .  S
C342        C575   1.400       .  A
C343        C344   1.404       .  A
C343        H347   1.084       .  S
C345        C576   1.420       .  A
C345        H348   1.083       .  S
O349       Cr367   2.001       .  S
O349        C357   1.261       .  A
O350       Cr367   1.992       .  S
O350        C351   1.264       .  A
C351        O352   1.261       .  A
C351        C447   1.484       .  S
O352       Cr368   1.999       .  S
O353       Cr368   1.998       .  S
O353        C354   1.266       .  A
C354        O355   1.259       .  A
C354        C429   1.486       .  S
O355       Cr369   1.996       .  S
O356       Cr369   1.999       .  S
O356        C357   1.266       .  A
C357        C460   1.488       .  S
O358       Cr367   2.013       .  S
O358        C366   1.266       .  A
O359       Cr367   1.990       .  S
O359        C360   1.264       .  A
C360        O361   1.267       .  A
C360        C389   1.506       .  S
O361       Cr368   2.019       .  S
O362       Cr368   1.989       .  S
O362        C363   1.264       .  A
C363        O364   1.268       .  A
C363        C371   1.504       .  S
O364       Cr369   2.019       .  S
O365       Cr369   1.987       .  S
O365        C366   1.263       .  A
C366        C400   1.500       .  S
Cr367       O370   1.796       .  S
Cr368       O370   1.797       .  S
Cr369       O370   1.796       .  S
C371        C372   1.417       .  A
C371        C376   1.415       .  A
C372        H377   1.083       .  S
C373        C421   1.481       .  S
C373        C374   1.397       .  A
C374        H378   1.084       .  S
C375        C384   1.491       .  S
C375        C376   1.404       .  A
C376        H379   1.083       .  S
C380        C381   1.408       .  A
C380       C1429   1.406   1_455  A
C381        C382   1.406       .  A
C381        H386   1.083       .  S
C382       C1667   1.492       .  S
C382       C1543   1.407   1_455  A
C383       C1310   1.405       .  A
C383        H387   1.082       .  S
C384        C385   1.405       .  A
C385       C1192   1.407   1_556  A
C385        H388   1.083       .  S
C389        C390   1.411       .  A
C390        C391   1.401       .  A
C390        H395   1.083       .  S
C391        C962   1.492       .  S
C391        C972   1.401   1_556  A
C392       C1667   1.401       .  A
C392        C393   1.405       .  A
C392        H396   1.084       .  S
C393        C424   1.491       .  S
C393       C1786   1.424       .  A
C394       C1089   1.424       .  A
C394        H397   1.083       .  S
C398        C418   1.492       .  S
C398        C403   1.403       .  A
C399        C632   1.418   1_554  A
C399        H404   1.083       .  S
C400        C401   1.412       .  A
C401        H405   1.083       .  S
C402        C612   1.487       .  S
C402        C517   1.405       .  A
C402        C403   1.404       .  A
C403        H406   1.084       .  S
O407       Cr425   2.018       .  S
O407        C415   1.267       .  A
O408       Cr425   1.988       .  S
O408        C409   1.265       .  A
C409        O410   1.268       .  A
C409        C456   1.503       .  S
O410       Cr426   2.016       .  S
O411       Cr426   1.996       .  S
O411        C412   1.263       .  A
C412        O413   1.269       .  A
C412        C431   1.509       .  S
O413       Cr427   2.024       .  S
O414       Cr427   1.979       .  S
O414        C415   1.260       .  A
C415        C451   1.501       .  S
O416       Cr425   2.001       .  S
O416        C424   1.261       .  A
O417       Cr425   2.001       .  S
O417        C418   1.265       .  A
C418        O419   1.260       .  A
O419       Cr426   2.000       .  S
O420       Cr426   1.996       .  S
O420        C421   1.266       .  A
C421        O422   1.258       .  A
O422       Cr427   1.991       .  S
O423       Cr427   2.001       .  S
O423        C424   1.267       .  A
Cr425       O428   1.799       .  S
Cr426       O428   1.798       .  S
Cr427       O428   1.798       .  S
C429        C430   1.419       .  A
C429        C434   1.402       .  A
C430        C431   1.416       .  A
C430        H435   1.083       .  S
C431        C432   1.419       .  A
C432        C433   1.409       .  A
C432        H436   1.083       .  S
C433        C440   1.498       .  S
C433        C434   1.402       .  A
C434        H437   1.084       .  S
C438       C1841   1.493       .  S
C438       C1599   1.406       .  A
C438        C443   1.407   1_655  A
C439       C1366   1.410       .  A
C439        C440   1.410       .  A
C439        H444   1.083       .  S
C440        C441   1.411       .  A
C441       C1370   1.408       .  A
C441        H445   1.083       .  S
C442       C1601   1.408       .  A
C442        C443   1.406       .  A
C443        H446   1.083       .  S
C447        C448   1.404       .  A
C447       C1148   1.418       .  A
C448        C449   1.401       .  A
C448        H453   1.084       .  S
C449       C1134   1.493       .  S
C449       C1146   1.403       .  A
C450       C1841   1.403   1_455  A
C450        C451   1.413       .  A
C450        H454   1.083       .  S
C451        C452   1.414   1_455  A
C452       C1839   1.418       .  A
C452        H455   1.083       .  S
C456        C457   1.416       .  A
C456        C461   1.419       .  A
C457        C458   1.401       .  A
C457        H462   1.083       .  S
C458        C674   1.502       .  S
C458        C691   1.400       .  A
C459        C460   1.404       .  A
C459        H463   1.084       .  S
C461        C692   1.420       .  A
C461        H464   1.083       .  S
O465       Cr483   2.013       .  S
O465        C473   1.267       .  A
O466       Cr483   1.999       .  S
O466        C467   1.264       .  A
C467        O468   1.269       .  A
C467        C563   1.511       .  S
O468       Cr484   2.024       .  S
O469       Cr484   1.985       .  S
O469        C470   1.262       .  A
C470        O471   1.266       .  A
C470        C545   1.502       .  S
O471       Cr485   2.017       .  S
O472       Cr485   1.990       .  S
O472        C473   1.266       .  A
C473        C576   1.501       .  S
O474       Cr483   2.005       .  S
O474        C482   1.260       .  A
O475       Cr483   1.993       .  S
O475        C476   1.266       .  A
C476        O477   1.259       .  A
C476        C505   1.480       .  S
O477       Cr484   1.993       .  S
O478       Cr484   1.997       .  S
O478        C479   1.267       .  A
C479        O480   1.261       .  A
C479        C487   1.488       .  S
O480       Cr485   2.000       .  S
O481       Cr485   2.000       .  S
O481        C482   1.264       .  A
C482        C516   1.493       .  S
Cr483       O486   1.797       .  S
Cr484       O486   1.797       .  S
Cr485       O486   1.798       .  S
C487        C488   1.419       .  A
C487        C492   1.402       .  A
C488        C605   1.417       .  A
C488        H493   1.083       .  S
C489        C537   1.510       .  S
C489        C604   1.417       .  A
C489        C490   1.420       .  A
C490        C607   1.409       .  A
C490        H494   1.083       .  S
C491        C500   1.498       .  S
C491        C606   1.409       .  A
C491        C492   1.401       .  A
C492        H495   1.084       .  S
C496        C497   1.406       .  A
C496       C1777   1.407   1_454  A
C497        C498   1.404   1_455  A
C497        H502   1.083       .  S
C498       C2015   1.490       .  S
C498       C1659   1.405       .  A
C499        C730   1.410   1_554  A
C499        C616   1.410   1_545  A
C499        H503   1.083   1_554  S
C500        C615   1.410   1_565  A
C500        C501   1.411       .  A
C501        C844   1.408   1_565  A
C501        H504   1.083       .  S
C505        C506   1.397       .  A
C505        C626   1.418       .  A
C506        C507   1.398       .  A
C506        H511   1.084       .  S
C507       C1310   1.490       .  S
C507       C1320   1.405       .  A
C508       C2015   1.404   1_455  A
C508        C509   1.415       .  A
C508        H512   1.083       .  S
C509        C540   1.502       .  S
C509       C1902   1.416   1_455  A
C510        C621   1.418   1_554  A
C510       C1205   1.416       .  A
C510        H513   1.083       .  S
C514        C534   1.502       .  S
C514        C631   1.420       .  A
C514        C519   1.416       .  A
C515        C630   1.420       .  A
C515        H520   1.083       .  S
C516        C517   1.403       .  A
C517        H521   1.084       .  S
C518        C519   1.401   1_545  A
C519        H522   1.082       .  S
O523       Cr541   2.001       .  S
O523        C531   1.261       .  A
O524       Cr541   1.995       .  S
O524        C525   1.263       .  A
C525        O526   1.260       .  A
C525        C572   1.487       .  S
O526       Cr542   2.001       .  S
O527       Cr542   1.994       .  S
O527        C528   1.266       .  A
C528        O529   1.259       .  A
C528        C547   1.480       .  S
O529       Cr543   1.993       .  S
O530       Cr543   1.999       .  S
O530        C531   1.267       .  A
C531        C567   1.490       .  S
O532       Cr541   2.013       .  S
O532        C540   1.266       .  A
O533       Cr541   1.992       .  S
O533        C534   1.266       .  A
C534        O535   1.268       .  A
O535       Cr542   2.014       .  S
O536       Cr542   1.998       .  S
O536        C537   1.264       .  A
C537        O538   1.270       .  A
O538       Cr543   2.024       .  S
O539       Cr543   1.989       .  S
O539        C540   1.263       .  A
Cr541       O544   1.797       .  S
Cr542       O544   1.796       .  S
Cr543       O544   1.795       .  S
C545        C546   1.416       .  A
C545        C550   1.415       .  A
C546        C547   1.419       .  A
C546        H551   1.083       .  S
C547        C548   1.397       .  A
C548        C549   1.398       .  A
C548        H552   1.084       .  S
C549        C556   1.489       .  S
C549        C550   1.403       .  A
C550        H553   1.083       .  S
C554       C1957   1.498       .  S
C554       C1715   1.410   1_455  A
C554        C559   1.411       .  A
C555        C786   1.405       .  A
C555        C556   1.403   1_545  A
C555        H560   1.082       .  S
C556        C557   1.404       .  A
C557        C790   1.406   1_565  A
C557        H561   1.083       .  S
C558       C1717   1.408       .  A
C558        C559   1.409       .  A
C559        H562   1.083       .  S
C563        C564   1.419       .  A
C563       C1264   1.419       .  A
C564        C565   1.408       .  A
C564        H569   1.083       .  S
C565       C1250   1.498       .  S
C565       C1262   1.401       .  A
C566       C1957   1.401       .  A
C566        C567   1.402       .  A
C566        H570   1.084       .  S
C567        C568   1.421       .  A
C568       C1955   1.419   1_455  A
C568        H571   1.083       .  S
C572        C573   1.403       .  A
C572        C577   1.415       .  A
C573        C574   1.405   1_565  A
C573        H578   1.084       .  S
C575        C576   1.415       .  A
C575        H579   1.083       .  S
C577        H580   1.083       .  S
O581       Cr599   2.013       .  S
O581        C589   1.267       .  A
O582       Cr599   1.999       .  S
O582        C583   1.264       .  A
C583        O584   1.269       .  A
C583        C679   1.511       .  S
O584       Cr600   2.024       .  S
O585       Cr600   1.985       .  S
O585        C586   1.262       .  A
C586        O587   1.266       .  A
C586        C661   1.502       .  S
O587       Cr601   2.017       .  S
O588       Cr601   1.990       .  S
O588        C589   1.266       .  A
C589        C692   1.501       .  S
O590       Cr599   2.005       .  S
O590        C598   1.260       .  A
O591       Cr599   1.993       .  S
O591        C592   1.266       .  A
C592        O593   1.259       .  A
C592        C621   1.480       .  S
O593       Cr600   1.993       .  S
O594       Cr600   1.997       .  S
O594        C595   1.267       .  A
C595        O596   1.261       .  A
C595        C603   1.488       .  S
O596       Cr601   2.000       .  S
O597       Cr601   2.000       .  S
O597        C598   1.264       .  A
C598        C632   1.493       .  S
Cr599       O602   1.796       .  S
Cr600       O602   1.797       .  S
Cr601       O602   1.798       .  S
C603        C604   1.419   1_556  A
C603        C608   1.402       .  A
C604        H609   1.083       .  S
C605        C653   1.510       .  S
C605        C606   1.420       .  A
C606        H610   1.083       .  S
C607        C616   1.498       .  S
C607        C608   1.401   1_554  A
C608        H611   1.084       .  S
C612        C613   1.406       .  A
C612       C1661   1.407   1_455  A
C613        C614   1.404   1_455  A
C613        H618   1.083       .  S
C614       C1899   1.490       .  S
C614       C1775   1.405       .  A
C615        C846   1.410       .  A
C615        H619   1.083       .  S
C616        C617   1.411       .  A
C617        C728   1.408   1_565  A
C617        H620   1.083       .  S
C621        C622   1.397       .  A
C622        C623   1.398   1_556  A
C622        H627   1.084       .  S
C623       C1194   1.491       .  S
C623       C1204   1.405       .  A
C624       C1899   1.404   1_455  A
C624        C625   1.415       .  A
C624        H628   1.083       .  S
C625        C656   1.502       .  S
C625       C2018   1.416   1_455  A
C626       C1321   1.416       .  A
C626        H629   1.083       .  S
C630        C650   1.502       .  S
C630        C635   1.416       .  A
C631        H636   1.083       .  S
C632        C633   1.403       .  A
C633        H637   1.084       .  S
C634        C635   1.401   1_545  A
C635        H638   1.082       .  S
O639       Cr657   2.001       .  S
O639        C647   1.261       .  A
O640       Cr657   1.995       .  S
O640        C641   1.263       .  A
C641        O642   1.260       .  A
C641        C688   1.487       .  S
O642       Cr658   2.001       .  S
O643       Cr658   1.994       .  S
O643        C644   1.266       .  A
C644        O645   1.259       .  A
C644        C663   1.480       .  S
O645       Cr659   1.993       .  S
O646       Cr659   1.999       .  S
O646        C647   1.267       .  A
C647        C683   1.490       .  S
O648       Cr657   2.013       .  S
O648        C656   1.266       .  A
O649       Cr657   1.992       .  S
O649        C650   1.266       .  A
C650        O651   1.268       .  A
O651       Cr658   2.014       .  S
O652       Cr658   1.999       .  S
O652        C653   1.264       .  A
C653        O654   1.270       .  A
O654       Cr659   2.024       .  S
O655       Cr659   1.989       .  S
O655        C656   1.263       .  A
Cr657       O660   1.797       .  S
Cr658       O660   1.796       .  S
Cr659       O660   1.795       .  S
C661        C662   1.416       .  A
C661        C666   1.415       .  A
C662        C663   1.419       .  A
C662        H667   1.083       .  S
C663        C664   1.397       .  A
C664        C665   1.398       .  A
C664        H668   1.084       .  S
C665        C672   1.489       .  S
C665        C666   1.403       .  A
C666        H669   1.083       .  S
C670       C2073   1.498       .  S
C670       C1831   1.410   1_455  A
C670        C675   1.411       .  A
C671        C902   1.405       .  A
C671        C672   1.403   1_545  A
C671        H676   1.082       .  S
C672        C673   1.404       .  A
C673        C906   1.406   1_565  A
C673        H677   1.083       .  S
C674       C1833   1.408       .  A
C674        C675   1.409       .  A
C675        H678   1.083       .  S
C679        C680   1.419       .  A
C679       C1380   1.419       .  A
C680        C681   1.408       .  A
C680        H685   1.083       .  S
C681       C1366   1.498       .  S
C681       C1378   1.401       .  A
C682       C2073   1.401       .  A
C682        C683   1.402       .  A
C682        H686   1.084       .  S
C683        C684   1.421       .  A
C684       C2071   1.419   1_455  A
C684        H687   1.083       .  S
C688        C689   1.403       .  A
C688        C693   1.415       .  A
C689        C690   1.405   1_565  A
C689        H694   1.084       .  S
C691        C692   1.415       .  A
C691        H695   1.083       .  S
C693        H696   1.083       .  S
O697       Cr715   1.999       .  S
O697        C705   1.259       .  A
O698       Cr715   1.997       .  S
O698        C699   1.267       .  A
C699        O700   1.257       .  A
C699        C795   1.479       .  S
O700       Cr716   1.988       .  S
O701       Cr716   1.997       .  S
O701        C702   1.267       .  A
C702        O703   1.261       .  A
C702        C777   1.488       .  S
O703       Cr717   2.000       .  S
O704       Cr717   1.993       .  S
O704        C705   1.263       .  A
C705        C808   1.486       .  S
O706       Cr715   2.016       .  S
O706        C714   1.268       .  A
O707       Cr715   1.995       .  S
O707        C708   1.263       .  A
C708        O709   1.270       .  A
C708        C737   1.508       .  S
O709       Cr716   2.024       .  S
O710       Cr716   1.978       .  S
O710        C711   1.261       .  A
C711        O712   1.266       .  A
C711        C719   1.500       .  S
O712       Cr717   2.015       .  S
O713       Cr717   1.986       .  S
O713        C714   1.265       .  A
C714        C748   1.502       .  S
Cr715       O718   1.795       .  S
Cr716       O718   1.793       .  S
Cr717       O718   1.797       .  S
C719        C720   1.414       .  A
C719        C724   1.412       .  A
C720        C837   1.419       .  A
C720        H725   1.083       .  S
C721        C769   1.483       .  S
C721        C836   1.419   1_554  A
C721        C722   1.404       .  A
C722        C839   1.401   1_554  A
C722        H726   1.084       .  S
C723        C732   1.492       .  S
C723        C838   1.401       .  A
C723        C724   1.401       .  A
C724        H727   1.083       .  S
C728       C1214   1.503       .  S
C728        C729   1.410   1_554  A
C729        C730   1.412       .  A
C729        H734   1.083       .  S
C731       C1658   1.407       .  A
C731        C848   1.405       .  A
C731        H735   1.083       .  S
C732        C847   1.405       .  A
C732        C733   1.408       .  A
C733       C1772   1.406       .  A
C733        H736   1.083       .  S
C737        C738   1.420       .  A
C737        C858   1.416       .  A
C738        C739   1.409       .  A
C738        H743   1.083       .  S
C739       C1542   1.499       .  S
C739       C1552   1.401       .  A
C740        C741   1.402       .  A
C740        H744   1.084       .  S
C741        C772   1.486       .  S
C742        C853   1.416       .  A
C742       C1437   1.419   1_556  A
C742        H745   1.083       .  S
C746        C766   1.484       .  S
C746        C863   1.418   1_554  A
C746        C751   1.404       .  A
C747        C862   1.418       .  A
C747        C980   1.414       .  A
C747        H752   1.083       .  S
C748       C1211   1.419   1_545  A
C748        C749   1.415       .  A
C749       C1330   1.399       .  A
C749        H753   1.082       .  S
C750        C960   1.492       .  S
C750       C1097   1.402       .  A
C750        C751   1.401   1_556  A
C751        H754   1.084       .  S
O755       Cr773   2.014       .  S
O755        C763   1.267       .  A
O756       Cr773   1.991       .  S
O756        C757   1.265       .  A
C757        O758   1.267       .  A
C757        C804   1.504       .  S
O758       Cr774   2.016       .  S
O759       Cr774   1.993       .  S
O759        C760   1.265       .  A
C760        O761   1.267       .  A
C760        C779   1.505       .  S
O761       Cr775   2.018       .  S
O762       Cr775   1.991       .  S
O762        C763   1.264       .  A
C763        C799   1.502       .  S
O764       Cr773   2.000       .  S
O764        C772   1.260       .  A
O765       Cr773   1.992       .  S
O765        C766   1.264       .  A
C766        O767   1.261       .  A
O767       Cr774   2.002       .  S
O768       Cr774   1.994       .  S
O768        C769   1.265       .  A
C769        O770   1.260       .  A
O770       Cr775   1.998       .  S
O771       Cr775   1.995       .  S
O771        C772   1.265       .  A
Cr773       O776   1.794       .  S
Cr774       O776   1.794       .  S
Cr775       O776   1.793       .  S
C777        C778   1.422       .  A
C777        C782   1.403       .  A
C778        C779   1.418       .  A
C778        H783   1.083       .  S
C779        C780   1.414       .  A
C780        C781   1.403       .  A
C780        H784   1.083       .  S
C781        C788   1.493       .  S
C781        C782   1.400       .  A
C782        H785   1.084       .  S
C786        C791   1.404       .  A
C787       C1714   1.406       .  A
C787        C788   1.407       .  A
C787        H792   1.083       .  S
C788        C789   1.408       .  A
C789       C1718   1.408       .  A
C789        H793   1.083       .  S
C790       C1270   1.485       .  S
C790        C791   1.407       .  A
C791        H794   1.083       .  S
C795        C796   1.395       .  A
C795       C1496   1.419       .  A
C796        C797   1.397       .  A
C796        H801   1.084       .  S
C797       C1482   1.490       .  S
C797       C1494   1.403       .  A
C798        C799   1.415       .  A
C798        H802   1.082       .  S
C799        C800   1.417       .  A
C800        H803   1.083       .  S
C804        C805   1.412       .  A
C804        C809   1.417       .  A
C805        C806   1.402       .  A
C805        H810   1.083       .  S
C806       C1022   1.494       .  S
C806       C1039   1.402       .  A
C807       C1270   1.403       .  A
C807        C808   1.401       .  A
C807        H811   1.084       .  S
C808       C1273   1.415   1_545  A
C809       C1040   1.421       .  A
C809        H812   1.083       .  S
O813       Cr831   1.999       .  S
O813        C821   1.259       .  A
O814       Cr831   1.997       .  S
O814        C815   1.267       .  A
C815        O816   1.257       .  A
C815        C911   1.479       .  S
O816       Cr832   1.988       .  S
O817       Cr832   1.997       .  S
O817        C818   1.267       .  A
C818        O819   1.261       .  A
C818        C893   1.488       .  S
O819       Cr833   2.000       .  S
O820       Cr833   1.993       .  S
O820        C821   1.263       .  A
C821        C924   1.486       .  S
O822       Cr831   2.016       .  S
O822        C830   1.268       .  A
O823       Cr831   1.995       .  S
O823        C824   1.263       .  A
C824        O825   1.270       .  A
C824        C853   1.509       .  S
O825       Cr832   2.024       .  S
O826       Cr832   1.978       .  S
O826        C827   1.261       .  A
C827        O828   1.266       .  A
C827        C835   1.500       .  S
O828       Cr833   2.015       .  S
O829       Cr833   1.987       .  S
O829        C830   1.265       .  A
C830        C864   1.502       .  S
Cr831       O834   1.795       .  S
Cr832       O834   1.793       .  S
Cr833       O834   1.797       .  S
C835        C836   1.414       .  A
C835        C840   1.412       .  A
C836        H841   1.083       .  S
C837        C885   1.484       .  S
C837        C838   1.404       .  A
C838        H842   1.084       .  S
C839        C848   1.492       .  S
C839        C840   1.401       .  A
C840        H843   1.083       .  S
C844       C1330   1.504       .  S
C844        C845   1.410       .  A
C845        C846   1.412       .  A
C845        H850   1.083       .  S
C847       C1774   1.407       .  A
C847        H851   1.083       .  S
C848        C849   1.408       .  A
C849       C1656   1.406       .  A
C849        H852   1.083       .  S
C853        C854   1.420       .  A
C854        C855   1.409       .  A
C854        H859   1.083       .  S
C855       C1426   1.499       .  S
C855       C1436   1.401   1_556  A
C856        C857   1.402       .  A
C856        H860   1.084       .  S
C857        C888   1.485       .  S
C858       C1553   1.419       .  A
C858        H861   1.083       .  S
C862        C882   1.484       .  S
C862        C867   1.404       .  A
C863       C1096   1.414       .  A
C863        H868   1.083       .  S
C864       C1327   1.419   1_546  A
C864        C865   1.415       .  A
C865       C1214   1.399   1_556  A
C865        H869   1.082       .  S
C866       C1076   1.492       .  S
C866        C981   1.402       .  A
C866        C867   1.401       .  A
C867        H870   1.084       .  S
O871       Cr889   2.014       .  S
O871        C879   1.267       .  A
O872       Cr889   1.991       .  S
O872        C873   1.265       .  A
C873        O874   1.267       .  A
C873        C920   1.504       .  S
O874       Cr890   2.016       .  S
O875       Cr890   1.992       .  S
O875        C876   1.265       .  A
C876        O877   1.267       .  A
C876        C895   1.505       .  S
O877       Cr891   2.018       .  S
O878       Cr891   1.992       .  S
O878        C879   1.264       .  A
C879        C915   1.502       .  S
O880       Cr889   2.000       .  S
O880        C888   1.260       .  A
O881       Cr889   1.992       .  S
O881        C882   1.264       .  A
C882        O883   1.261       .  A
O883       Cr890   2.001       .  S
O884       Cr890   1.994       .  S
O884        C885   1.265       .  A
C885        O886   1.260       .  A
O886       Cr891   1.998       .  S
O887       Cr891   1.994       .  S
O887        C888   1.265       .  A
Cr889       O892   1.794       .  S
Cr890       O892   1.794       .  S
Cr891       O892   1.793       .  S
C893        C894   1.422       .  A
C893        C898   1.403       .  A
C894        C895   1.418       .  A
C894        H899   1.083       .  S
C895        C896   1.414       .  A
C896        C897   1.403       .  A
C896        H900   1.083       .  S
C897        C904   1.493       .  S
C897        C898   1.400       .  A
C898        H901   1.084       .  S
C902        C907   1.404       .  A
C903       C1830   1.406       .  A
C903        C904   1.407       .  A
C903        H908   1.083       .  S
C904        C905   1.407       .  A
C905       C1834   1.408       .  A
C905        H909   1.083       .  S
C906       C1386   1.485       .  S
C906        C907   1.407       .  A
C907        H910   1.083       .  S
C911        C912   1.395       .  A
C911       C1612   1.419       .  A
C912        C913   1.397       .  A
C912        H917   1.084       .  S
C913       C1598   1.490       .  S
C913       C1610   1.403       .  A
C914        C915   1.415       .  A
C914        H918   1.082       .  S
C915        C916   1.417       .  A
C916        H919   1.083       .  S
C920        C921   1.413       .  A
C920        C925   1.417       .  A
C921        C922   1.402       .  A
C921        H926   1.083       .  S
C922       C1138   1.494       .  S
C922       C1155   1.402       .  A
C923       C1386   1.403       .  A
C923        C924   1.401       .  A
C923        H927   1.084       .  S
C924       C1389   1.415   1_545  A
C925       C1156   1.421       .  A
C925        H928   1.083       .  S
O929       Cr947   2.001       .  S
O929        C937   1.260       .  A
O930       Cr947   1.992       .  S
O930        C931   1.265       .  A
C931        O932   1.261       .  A
C931       C1027   1.484       .  S
O932       Cr948   1.999       .  S
O933       Cr948   1.998       .  S
O933        C934   1.266       .  A
C934        O935   1.259       .  A
C934       C1009   1.487       .  S
O935       Cr949   1.996       .  S
O936       Cr949   1.999       .  S
O936        C937   1.266       .  A
C937       C1040   1.488       .  S
O938       Cr947   2.013       .  S
O938        C946   1.267       .  A
O939       Cr947   1.990       .  S
O939        C940   1.264       .  A
C940        O941   1.267       .  A
C940        C969   1.506       .  S
O941       Cr948   2.019       .  S
O942       Cr948   1.989       .  S
O942        C943   1.264       .  A
C943        O944   1.268       .  A
C943        C951   1.504       .  S
O944       Cr949   2.019       .  S
O945       Cr949   1.987       .  S
O945        C946   1.263       .  A
C946        C980   1.500       .  S
Cr947       O950   1.796       .  S
Cr948       O950   1.797       .  S
Cr949       O950   1.796       .  S
C951        C952   1.417       .  A
C951        C956   1.416       .  A
C952       C1069   1.420       .  A
C952        H957   1.083       .  S
C953       C1001   1.481       .  S
C953       C1068   1.420   1_554  A
C953        C954   1.397       .  A
C954       C1071   1.397   1_554  A
C954        H958   1.084       .  S
C955        C964   1.491       .  S
C955       C1070   1.397       .  A
C955        C956   1.404       .  A
C956        H959   1.083       .  S
C960        C961   1.408       .  A
C961        C962   1.406       .  A
C961        H966   1.083       .  S
C963       C1890   1.405       .  A
C963       C1080   1.405   1_554  A
C963        H967   1.082       .  S
C964       C1079   1.405       .  A
C964        C965   1.405       .  A
C965       C2004   1.407       .  A
C965        H968   1.083       .  S
C969        C970   1.411       .  A
C969       C1090   1.418       .  A
C970        C971   1.401       .  A
C970        H975   1.083       .  S
C971       C1774   1.492       .  S
C971       C1784   1.401       .  A
C972        C973   1.405       .  A
C972        H976   1.084       .  S
C973       C1004   1.491       .  S
C974       C1085   1.418   1_554  A
C974       C1669   1.424       .  A
C974        H977   1.083       .  S
C978        C998   1.492       .  S
C978       C1095   1.419       .  A
C978        C983   1.403       .  A
C979       C1094   1.419       .  A
C979       C1212   1.418       .  A
C979        H984   1.083       .  S
C980        C981   1.412       .  A
C981        H985   1.083       .  S
C982       C1192   1.487       .  S
C982       C1329   1.405   1_554  A
C982        C983   1.405       .  A
C983        H986   1.084       .  S
O987      Cr1005   2.018       .  S
O987        C995   1.267       .  A
O988      Cr1005   1.989       .  S
O988        C989   1.265       .  A
C989        O990   1.268       .  A
C989       C1036   1.503       .  S
O990      Cr1006   2.016       .  S
O991      Cr1006   1.996       .  S
O991        C992   1.263       .  A
C992        O993   1.269       .  A
C992       C1011   1.509       .  S
O993      Cr1007   2.023       .  S
O994      Cr1007   1.979       .  S
O994        C995   1.260       .  A
C995       C1031   1.501       .  S
O996      Cr1005   2.001       .  S
O996       C1004   1.261       .  A
O997      Cr1005   2.001       .  S
O997        C998   1.265       .  A
C998        O999   1.260       .  A
O999      Cr1006   2.000       .  S
O1000     Cr1006   1.996       .  S
O1000      C1001   1.266       .  A
C1001      O1002   1.258       .  A
O1002     Cr1007   1.991       .  S
O1003     Cr1007   2.001       .  S
O1003      C1004   1.267       .  A
Cr1005     O1008   1.799       .  S
Cr1006     O1008   1.798       .  S
Cr1007     O1008   1.798       .  S
C1009      C1010   1.419       .  A
C1009      C1014   1.402       .  A
C1010      C1011   1.416       .  A
C1010      H1015   1.083       .  S
C1011      C1012   1.419       .  A
C1012      C1013   1.409       .  A
C1012      H1016   1.083       .  S
C1013      C1020   1.498       .  S
C1013      C1014   1.402       .  A
C1014      H1017   1.084       .  S
C1018      C1023   1.407       .  A
C1019      C1946   1.410       .  A
C1019      C1020   1.410       .  A
C1019      H1024   1.083       .  S
C1020      C1021   1.411       .  A
C1021      C1950   1.408       .  A
C1021      H1025   1.083       .  S
C1022      C1023   1.406       .  A
C1023      H1026   1.083       .  S
C1027      C1028   1.404       .  A
C1027      C1728   1.418       .  A
C1028      C1029   1.401       .  A
C1028      H1033   1.084       .  S
C1029      C1714   1.493       .  S
C1029      C1726   1.403       .  A
C1030      C1031   1.413       .  A
C1030      H1034   1.083       .  S
C1031      C1032   1.414       .  A
C1032      H1035   1.083       .  S
C1036      C1037   1.416       .  A
C1036      C1041   1.419       .  A
C1037      C1038   1.401       .  A
C1037      H1042   1.083       .  S
C1038      C1254   1.502       .  S
C1038      C1271   1.400       .  A
C1039      C1040   1.404       .  A
C1039      H1043   1.084       .  S
C1041      C1272   1.420       .  A
C1041      H1044   1.083       .  S
O1045     Cr1063   2.001       .  S
O1045      C1053   1.260       .  A
O1046     Cr1063   1.992       .  S
O1046      C1047   1.265       .  A
C1047      O1048   1.261       .  A
C1047      C1143   1.484       .  S
O1048     Cr1064   1.999       .  S
O1049     Cr1064   1.998       .  S
O1049      C1050   1.266       .  A
C1050      O1051   1.259       .  A
C1050      C1125   1.486       .  S
O1051     Cr1065   1.996       .  S
O1052     Cr1065   1.999       .  S
O1052      C1053   1.266       .  A
C1053      C1156   1.488       .  S
O1054     Cr1063   2.013       .  S
O1054      C1062   1.267       .  A
O1055     Cr1063   1.990       .  S
O1055      C1056   1.264       .  A
C1056      O1057   1.267       .  A
C1056      C1085   1.506       .  S
O1057     Cr1064   2.019       .  S
O1058     Cr1064   1.989       .  S
O1058      C1059   1.264       .  A
C1059      O1060   1.268       .  A
C1059      C1067   1.504       .  S
O1060     Cr1065   2.019       .  S
O1061     Cr1065   1.987       .  S
O1061      C1062   1.263       .  A
C1062      C1096   1.500       .  S
Cr1063     O1066   1.796       .  S
Cr1064     O1066   1.797       .  S
Cr1065     O1066   1.796       .  S
C1067      C1068   1.417       .  A
C1067      C1072   1.416       .  A
C1068      H1073   1.083       .  S
C1069      C1117   1.481       .  S
C1069      C1070   1.397       .  A
C1070      H1074   1.084       .  S
C1071      C1080   1.491       .  S
C1071      C1072   1.404       .  A
C1072      H1075   1.083       .  S
C1076      C1077   1.408       .  A
C1077      C1078   1.406       .  A
C1077      H1082   1.083       .  S
C1079      C2006   1.405       .  A
C1079      H1083   1.082       .  S
C1080      C1081   1.405       .  A
C1081      C1888   1.407   1_556  A
C1081      H1084   1.083       .  S
C1085      C1086   1.411       .  A
C1086      C1087   1.401       .  A
C1086      H1091   1.083       .  S
C1087      C1658   1.492       .  S
C1087      C1668   1.401   1_556  A
C1088      C1089   1.405       .  A
C1088      H1092   1.084       .  S
C1089      C1120   1.491       .  S
C1090      C1785   1.424       .  A
C1090      H1093   1.083       .  S
C1094      C1114   1.492       .  S
C1094      C1099   1.403       .  A
C1095      C1328   1.418   1_554  A
C1095      H1100   1.083       .  S
C1096      C1097   1.412       .  A
C1097      H1101   1.083       .  S
C1098      C1308   1.487       .  S
C1098      C1213   1.405       .  A
C1098      C1099   1.404       .  A
C1099      H1102   1.084       .  S
O1103     Cr1121   2.018       .  S
O1103      C1111   1.267       .  A
O1104     Cr1121   1.989       .  S
O1104      C1105   1.265       .  A
C1105      O1106   1.268       .  A
C1105      C1152   1.503       .  S
O1106     Cr1122   2.016       .  S
O1107     Cr1122   1.996       .  S
O1107      C1108   1.263       .  A
C1108      O1109   1.269       .  A
C1108      C1127   1.509       .  S
O1109     Cr1123   2.023       .  S
O1110     Cr1123   1.979       .  S
O1110      C1111   1.260       .  A
C1111      C1147   1.501       .  S
O1112     Cr1121   2.001       .  S
O1112      C1120   1.261       .  A
O1113     Cr1121   2.001       .  S
O1113      C1114   1.265       .  A
C1114      O1115   1.260       .  A
O1115     Cr1122   2.000       .  S
O1116     Cr1122   1.996       .  S
O1116      C1117   1.266       .  A
C1117      O1118   1.258       .  A
O1118     Cr1123   1.991       .  S
O1119     Cr1123   2.000       .  S
O1119      C1120   1.267       .  A
Cr1121     O1124   1.799       .  S
Cr1122     O1124   1.798       .  S
Cr1123     O1124   1.798       .  S
C1125      C1126   1.419       .  A
C1125      C1130   1.402       .  A
C1126      C1127   1.416       .  A
C1126      H1131   1.083       .  S
C1127      C1128   1.419       .  A
C1128      C1129   1.409       .  A
C1128      H1132   1.083       .  S
C1129      C1136   1.498       .  S
C1129      C1130   1.402       .  A
C1130      H1133   1.084       .  S
C1134      C1139   1.407       .  A
C1135      C2062   1.410       .  A
C1135      C1136   1.410       .  A
C1135      H1140   1.083       .  S
C1136      C1137   1.411       .  A
C1137      C2066   1.408       .  A
C1137      H1141   1.083       .  S
C1138      C1139   1.406       .  A
C1139      H1142   1.083       .  S
C1143      C1144   1.404       .  A
C1143      C1844   1.418       .  A
C1144      C1145   1.401       .  A
C1144      H1149   1.084       .  S
C1145      C1830   1.493       .  S
C1145      C1842   1.403       .  A
C1146      C1147   1.413       .  A
C1146      H1150   1.083       .  S
C1147      C1148   1.414       .  A
C1148      H1151   1.083       .  S
C1152      C1153   1.416       .  A
C1152      C1157   1.419       .  A
C1153      C1154   1.401       .  A
C1153      H1158   1.082       .  S
C1154      C1370   1.502       .  S
C1154      C1387   1.400       .  A
C1155      C1156   1.404       .  A
C1155      H1159   1.084       .  S
C1157      C1388   1.420       .  A
C1157      H1160   1.083       .  S
O1161     Cr1179   2.013       .  S
O1161      C1169   1.267       .  A
O1162     Cr1179   1.998       .  S
O1162      C1163   1.264       .  A
C1163      O1164   1.269       .  A
C1163      C1259   1.511       .  S
O1164     Cr1180   2.024       .  S
O1165     Cr1180   1.985       .  S
O1165      C1166   1.262       .  A
C1166      O1167   1.266       .  A
C1166      C1241   1.502       .  S
O1167     Cr1181   2.017       .  S
O1168     Cr1181   1.990       .  S
O1168      C1169   1.266       .  A
C1169      C1272   1.501       .  S
O1170     Cr1179   2.005       .  S
O1170      C1178   1.260       .  A
O1171     Cr1179   1.993       .  S
O1171      C1172   1.266       .  A
C1172      O1173   1.259       .  A
C1172      C1201   1.480       .  S
O1173     Cr1180   1.994       .  S
O1174     Cr1180   1.997       .  S
O1174      C1175   1.267       .  A
C1175      O1176   1.261       .  A
C1175      C1183   1.488       .  S
O1176     Cr1181   2.000       .  S
O1177     Cr1181   2.000       .  S
O1177      C1178   1.264       .  A
C1178      C1212   1.493       .  S
Cr1179     O1182   1.797       .  S
Cr1180     O1182   1.798       .  S
Cr1181     O1182   1.798       .  S
C1183      C1184   1.420       .  A
C1183      C1188   1.402       .  A
C1184      C1301   1.417       .  A
C1184      H1189   1.083       .  S
C1185      C1233   1.510       .  S
C1185      C1300   1.417       .  A
C1185      C1186   1.420       .  A
C1186      C1303   1.409       .  A
C1186      H1190   1.083       .  S
C1187      C1196   1.498       .  S
C1187      C1302   1.409       .  A
C1187      C1188   1.401       .  A
C1188      H1191   1.084       .  S
C1192      C1193   1.406       .  A
C1193      C1194   1.404       .  A
C1193      H1198   1.083       .  S
C1195      C1426   1.410   1_554  A
C1195      C1312   1.410   1_545  A
C1195      H1199   1.083   1_554  S
C1196      C1311   1.410   1_565  A
C1196      C1197   1.411       .  A
C1197      C1540   1.408   1_565  A
C1197      H1200   1.083       .  S
C1201      C1202   1.397       .  A
C1201      C1322   1.418       .  A
C1202      C1203   1.398       .  A
C1202      H1207   1.084       .  S
C1203      C2006   1.490       .  S
C1203      C2016   1.404       .  A
C1204      C1205   1.415       .  A
C1204      H1208   1.083       .  S
C1205      C1236   1.502       .  S
C1206      C1317   1.418   1_554  A
C1206      C1901   1.416       .  A
C1206      H1209   1.083       .  S
C1210      C1230   1.502       .  S
C1210      C1327   1.420       .  A
C1210      C1215   1.416       .  A
C1211      C1326   1.420       .  A
C1211      H1216   1.083       .  S
C1212      C1213   1.403       .  A
C1213      H1217   1.084       .  S
C1214      C1215   1.401   1_545  A
C1215      H1218   1.082       .  S
O1219     Cr1237   2.001       .  S
O1219      C1227   1.261       .  A
O1220     Cr1237   1.995       .  S
O1220      C1221   1.263       .  A
C1221      O1222   1.260       .  A
C1221      C1268   1.487       .  S
O1222     Cr1238   2.001       .  S
O1223     Cr1238   1.994       .  S
O1223      C1224   1.266       .  A
C1224      O1225   1.259       .  A
C1224      C1243   1.480       .  S
O1225     Cr1239   1.993       .  S
O1226     Cr1239   1.999       .  S
O1226      C1227   1.267       .  A
C1227      C1263   1.490       .  S
O1228     Cr1237   2.013       .  S
O1228      C1236   1.266       .  A
O1229     Cr1237   1.992       .  S
O1229      C1230   1.266       .  A
C1230      O1231   1.268       .  A
O1231     Cr1238   2.014       .  S
O1232     Cr1238   1.999       .  S
O1232      C1233   1.264       .  A
C1233      O1234   1.270       .  A
O1234     Cr1239   2.024       .  S
O1235     Cr1239   1.989       .  S
O1235      C1236   1.263       .  A
Cr1237     O1240   1.797       .  S
Cr1238     O1240   1.796       .  S
Cr1239     O1240   1.795       .  S
C1241      C1242   1.416       .  A
C1241      C1246   1.415       .  A
C1242      C1243   1.419       .  A
C1242      H1247   1.083       .  S
C1243      C1244   1.397       .  A
C1244      C1245   1.398       .  A
C1244      H1248   1.084       .  S
C1245      C1252   1.489       .  S
C1245      C1246   1.403       .  A
C1246      H1249   1.083       .  S
C1250      C1255   1.411       .  A
C1251      C1482   1.405       .  A
C1251      C1252   1.403   1_545  A
C1251      H1256   1.082       .  S
C1252      C1253   1.404       .  A
C1253      C1486   1.406   1_565  A
C1253      H1257   1.083       .  S
C1254      C1255   1.409       .  A
C1255      H1258   1.083       .  S
C1259      C1260   1.419       .  A
C1259      C1960   1.419       .  A
C1260      C1261   1.408       .  A
C1260      H1265   1.083       .  S
C1261      C1946   1.498       .  S
C1261      C1958   1.401       .  A
C1262      C1263   1.402       .  A
C1262      H1266   1.084       .  S
C1263      C1264   1.421       .  A
C1264      H1267   1.083       .  S
C1268      C1269   1.403       .  A
C1268      C1273   1.415       .  A
C1269      C1270   1.405   1_565  A
C1269      H1274   1.084       .  S
C1271      C1272   1.415       .  A
C1271      H1275   1.083       .  S
C1273      H1276   1.083       .  S
O1277     Cr1295   2.013       .  S
O1277      C1285   1.267       .  A
O1278     Cr1295   1.999       .  S
O1278      C1279   1.264       .  A
C1279      O1280   1.269       .  A
C1279      C1375   1.511       .  S
O1280     Cr1296   2.024       .  S
O1281     Cr1296   1.985       .  S
O1281      C1282   1.262       .  A
C1282      O1283   1.266       .  A
C1282      C1357   1.502       .  S
O1283     Cr1297   2.017       .  S
O1284     Cr1297   1.990       .  S
O1284      C1285   1.266       .  A
C1285      C1388   1.501       .  S
O1286     Cr1295   2.005       .  S
O1286      C1294   1.260       .  A
O1287     Cr1295   1.993       .  S
O1287      C1288   1.266       .  A
C1288      O1289   1.259       .  A
C1288      C1317   1.480       .  S
O1289     Cr1296   1.994       .  S
O1290     Cr1296   1.997       .  S
O1290      C1291   1.267       .  A
C1291      O1292   1.261       .  A
C1291      C1299   1.488       .  S
O1292     Cr1297   2.000       .  S
O1293     Cr1297   2.001       .  S
O1293      C1294   1.264       .  A
C1294      C1328   1.493       .  S
Cr1295     O1298   1.797       .  S
Cr1296     O1298   1.798       .  S
Cr1297     O1298   1.798       .  S
C1299      C1300   1.419   1_556  A
C1299      C1304   1.402       .  A
C1300      H1305   1.083       .  S
C1301      C1349   1.510       .  S
C1301      C1302   1.420       .  A
C1302      H1306   1.083       .  S
C1303      C1312   1.498       .  S
C1303      C1304   1.401   1_554  A
C1304      H1307   1.084       .  S
C1308      C1309   1.406       .  A
C1309      C1310   1.404       .  A
C1309      H1314   1.083       .  S
C1311      C1542   1.410       .  A
C1311      H1315   1.083       .  S
C1312      C1313   1.411       .  A
C1313      C1424   1.408   1_565  A
C1313      H1316   1.083       .  S
C1317      C1318   1.397       .  A
C1318      C1319   1.398   1_556  A
C1318      H1323   1.084       .  S
C1319      C1890   1.491       .  S
C1319      C1900   1.405       .  A
C1320      C1321   1.415       .  A
C1320      H1324   1.083       .  S
C1321      C1352   1.502       .  S
C1322      C2017   1.416       .  A
C1322      H1325   1.083       .  S
C1326      C1346   1.502       .  S
C1326      C1331   1.416       .  A
C1327      H1332   1.083       .  S
C1328      C1329   1.403       .  A
C1329      H1333   1.084       .  S
C1330      C1331   1.401   1_545  A
C1331      H1334   1.082       .  S
O1335     Cr1353   2.001       .  S
O1335      C1343   1.261       .  A
O1336     Cr1353   1.995       .  S
O1336      C1337   1.263       .  A
C1337      O1338   1.260       .  A
C1337      C1384   1.487       .  S
O1338     Cr1354   2.001       .  S
O1339     Cr1354   1.994       .  S
O1339      C1340   1.266       .  A
C1340      O1341   1.259       .  A
C1340      C1359   1.480       .  S
O1341     Cr1355   1.993       .  S
O1342     Cr1355   2.000       .  S
O1342      C1343   1.267       .  A
C1343      C1379   1.490       .  S
O1344     Cr1353   2.013       .  S
O1344      C1352   1.266       .  A
O1345     Cr1353   1.992       .  S
O1345      C1346   1.266       .  A
C1346      O1347   1.268       .  A
O1347     Cr1354   2.014       .  S
O1348     Cr1354   1.999       .  S
O1348      C1349   1.264       .  A
C1349      O1350   1.270       .  A
O1350     Cr1355   2.025       .  S
O1351     Cr1355   1.989       .  S
O1351      C1352   1.263       .  A
Cr1353     O1356   1.797       .  S
Cr1354     O1356   1.796       .  S
Cr1355     O1356   1.795       .  S
C1357      C1358   1.416       .  A
C1357      C1362   1.415       .  A
C1358      C1359   1.419       .  A
C1358      H1363   1.083       .  S
C1359      C1360   1.397       .  A
C1360      C1361   1.398       .  A
C1360      H1364   1.084       .  S
C1361      C1368   1.489       .  S
C1361      C1362   1.403       .  A
C1362      H1365   1.083       .  S
C1366      C1371   1.411       .  A
C1367      C1598   1.405       .  A
C1367      C1368   1.403   1_545  A
C1367      H1372   1.082       .  S
C1368      C1369   1.404       .  A
C1369      C1602   1.406   1_565  A
C1369      H1373   1.083       .  S
C1370      C1371   1.409       .  A
C1371      H1374   1.083       .  S
C1375      C1376   1.419       .  A
C1375      C2076   1.419       .  A
C1376      C1377   1.408       .  A
C1376      H1381   1.083       .  S
C1377      C2062   1.498       .  S
C1377      C2074   1.401       .  A
C1378      C1379   1.402       .  A
C1378      H1382   1.084       .  S
C1379      C1380   1.421       .  A
C1380      H1383   1.083       .  S
C1384      C1385   1.403       .  A
C1384      C1389   1.415       .  A
C1385      C1386   1.405   1_565  A
C1385      H1390   1.084       .  S
C1387      C1388   1.415       .  A
C1387      H1391   1.083       .  S
C1389      H1392   1.083       .  S
O1393     Cr1411   1.999       .  S
O1393      C1401   1.259       .  A
O1394     Cr1411   1.997       .  S
O1394      C1395   1.267       .  A
C1395      O1396   1.257       .  A
C1395      C1491   1.478       .  S
O1396     Cr1412   1.988       .  S
O1397     Cr1412   1.997       .  S
O1397      C1398   1.267       .  A
C1398      O1399   1.261       .  A
C1398      C1473   1.488       .  S
O1399     Cr1413   2.000       .  S
O1400     Cr1413   1.993       .  S
O1400      C1401   1.263       .  A
C1401      C1504   1.486       .  S
O1402     Cr1411   2.016       .  S
O1402      C1410   1.268       .  A
O1403     Cr1411   1.995       .  S
O1403      C1404   1.263       .  A
C1404      O1405   1.270       .  A
C1404      C1433   1.508       .  S
O1405     Cr1412   2.024       .  S
O1406     Cr1412   1.978       .  S
O1406      C1407   1.261       .  A
C1407      O1408   1.266       .  A
C1407      C1415   1.500       .  S
O1408     Cr1413   2.015       .  S
O1409     Cr1413   1.987       .  S
O1409      C1410   1.265       .  A
C1410      C1444   1.502       .  S
Cr1411     O1414   1.795       .  S
Cr1412     O1414   1.793       .  S
Cr1413     O1414   1.797       .  S
C1415      C1416   1.414       .  A
C1415      C1420   1.412       .  A
C1416      C1533   1.419       .  A
C1416      H1421   1.083       .  S
C1417      C1465   1.484       .  S
C1417      C1532   1.419   1_554  A
C1417      C1418   1.404       .  A
C1418      C1535   1.401   1_554  A
C1418      H1422   1.084       .  S
C1419      C1428   1.492       .  S
C1419      C1534   1.401       .  A
C1419      C1420   1.401       .  A
C1420      H1423   1.083       .  S
C1424      C1910   1.504       .  S
C1424      C1425   1.410   1_554  A
C1425      C1426   1.412       .  A
C1425      H1430   1.083       .  S
C1427      C1544   1.405       .  A
C1427      H1431   1.083       .  S
C1428      C1543   1.405       .  A
C1428      C1429   1.408       .  A
C1429      H1432   1.083       .  S
C1433      C1434   1.420       .  A
C1433      C1554   1.416   1_655  A
C1434      C1435   1.409   1_655  A
C1434      H1439   1.083       .  S
C1436      C1437   1.402       .  A
C1436      H1440   1.084       .  S
C1437      C1468   1.486       .  S
C1438      C1549   1.416   1_455  A
C1438      H1441   1.083       .  S
C1442      C1462   1.484       .  S
C1442      C1559   1.418   1_554  A
C1442      C1447   1.404       .  A
C1443      C1558   1.418       .  A
C1443      C1676   1.414       .  A
C1443      H1448   1.083       .  S
C1444      C1907   1.419   1_545  A
C1444      C1445   1.415       .  A
C1445      C2026   1.399       .  A
C1445      H1449   1.082       .  S
C1446      C1656   1.492       .  S
C1446      C1793   1.402       .  A
C1446      C1447   1.401   1_556  A
C1447      H1450   1.084       .  S
O1451     Cr1469   2.014       .  S
O1451      C1459   1.267       .  A
O1452     Cr1469   1.991       .  S
O1452      C1453   1.265       .  A
C1453      O1454   1.267       .  A
C1453      C1500   1.504       .  S
O1454     Cr1470   2.016       .  S
O1455     Cr1470   1.993       .  S
O1455      C1456   1.265       .  A
C1456      O1457   1.267       .  A
C1456      C1475   1.505       .  S
O1457     Cr1471   2.018       .  S
O1458     Cr1471   1.991       .  S
O1458      C1459   1.264       .  A
C1459      C1495   1.502       .  S
O1460     Cr1469   2.000       .  S
O1460      C1468   1.260       .  A
O1461     Cr1469   1.992       .  S
O1461      C1462   1.264       .  A
C1462      O1463   1.261       .  A
O1463     Cr1470   2.002       .  S
O1464     Cr1470   1.994       .  S
O1464      C1465   1.265       .  A
C1465      O1466   1.260       .  A
O1466     Cr1471   1.998       .  S
O1467     Cr1471   1.995       .  S
O1467      C1468   1.265       .  A
Cr1469     O1472   1.794       .  S
Cr1470     O1472   1.794       .  S
Cr1471     O1472   1.793       .  S
C1473      C1474   1.422       .  A
C1473      C1478   1.403       .  A
C1474      C1475   1.418       .  A
C1474      H1479   1.083       .  S
C1475      C1476   1.414       .  A
C1476      C1477   1.403       .  A
C1476      H1480   1.083       .  S
C1477      C1484   1.493       .  S
C1477      C1478   1.400       .  A
C1478      H1481   1.084       .  S
C1482      C1487   1.404       .  A
C1483      C1484   1.407       .  A
C1483      H1488   1.083       .  S
C1484      C1485   1.408   1_655  A
C1485      H1489   1.083       .  S
C1486      C1966   1.485       .  S
C1486      C1487   1.407       .  A
C1487      H1490   1.083       .  S
C1491      C1492   1.395       .  A
C1492      C1493   1.397       .  A
C1492      H1497   1.084       .  S
C1494      C1495   1.415       .  A
C1494      H1498   1.082       .  S
C1495      C1496   1.417       .  A
C1496      H1499   1.083       .  S
C1500      C1501   1.413       .  A
C1500      C1505   1.417       .  A
C1501      C1502   1.402       .  A
C1501      H1506   1.083       .  S
C1502      C1718   1.494       .  S
C1502      C1735   1.402       .  A
C1503      C1966   1.403       .  A
C1503      C1504   1.401       .  A
C1503      H1507   1.084       .  S
C1504      C1969   1.415   1_545  A
C1505      C1736   1.421       .  A
C1505      H1508   1.083       .  S
O1509     Cr1527   1.999       .  S
O1509      C1517   1.259       .  A
O1510     Cr1527   1.997       .  S
O1510      C1511   1.267       .  A
C1511      O1512   1.257       .  A
C1511      C1607   1.478       .  S
O1512     Cr1528   1.988       .  S
O1513     Cr1528   1.997       .  S
O1513      C1514   1.267       .  A
C1514      O1515   1.261       .  A
C1514      C1589   1.488       .  S
O1515     Cr1529   2.000       .  S
O1516     Cr1529   1.993       .  S
O1516      C1517   1.263       .  A
C1517      C1620   1.486       .  S
O1518     Cr1527   2.016       .  S
O1518      C1526   1.268       .  A
O1519     Cr1527   1.995       .  S
O1519      C1520   1.263       .  A
C1520      O1521   1.270       .  A
C1520      C1549   1.508       .  S
O1521     Cr1528   2.024       .  S
O1522     Cr1528   1.978       .  S
O1522      C1523   1.261       .  A
C1523      O1524   1.266       .  A
C1523      C1531   1.500       .  S
O1524     Cr1529   2.015       .  S
O1525     Cr1529   1.987       .  S
O1525      C1526   1.265       .  A
C1526      C1560   1.502       .  S
Cr1527     O1530   1.795       .  S
Cr1528     O1530   1.793       .  S
Cr1529     O1530   1.797       .  S
C1531      C1532   1.414       .  A
C1531      C1536   1.412       .  A
C1532      H1537   1.083       .  S
C1533      C1581   1.484       .  S
C1533      C1534   1.404       .  A
C1534      H1538   1.084       .  S
C1535      C1544   1.492       .  S
C1535      C1536   1.401       .  A
C1536      H1539   1.083       .  S
C1540      C2026   1.504       .  S
C1540      C1541   1.410       .  A
C1541      C1542   1.412       .  A
C1541      H1546   1.083       .  S
C1543      H1547   1.083       .  S
C1544      C1545   1.408       .  A
C1545      H1548   1.083       .  S
C1549      C1550   1.420       .  A
C1550      C1551   1.409   1_655  A
C1550      H1555   1.083       .  S
C1552      C1553   1.402       .  A
C1552      H1556   1.084       .  S
C1553      C1584   1.485       .  S
C1554      H1557   1.083       .  S
C1558      C1578   1.484       .  S
C1558      C1563   1.404       .  A
C1559      C1792   1.414       .  A
C1559      H1564   1.083       .  S
C1560      C2023   1.419   1_546  A
C1560      C1561   1.415       .  A
C1561      C1910   1.399   1_556  A
C1561      H1565   1.082       .  S
C1562      C1772   1.492       .  S
C1562      C1677   1.402       .  A
C1562      C1563   1.401       .  A
C1563      H1566   1.084       .  S
O1567     Cr1585   2.014       .  S
O1567      C1575   1.267       .  A
O1568     Cr1585   1.991       .  S
O1568      C1569   1.265       .  A
C1569      O1570   1.267       .  A
C1569      C1616   1.504       .  S
O1570     Cr1586   2.016       .  S
O1571     Cr1586   1.992       .  S
O1571      C1572   1.265       .  A
C1572      O1573   1.267       .  A
C1572      C1591   1.505       .  S
O1573     Cr1587   2.018       .  S
O1574     Cr1587   1.991       .  S
O1574      C1575   1.264       .  A
C1575      C1611   1.502       .  S
O1576     Cr1585   2.000       .  S
O1576      C1584   1.260       .  A
O1577     Cr1585   1.992       .  S
O1577      C1578   1.264       .  A
C1578      O1579   1.261       .  A
O1579     Cr1586   2.001       .  S
O1580     Cr1586   1.994       .  S
O1580      C1581   1.265       .  A
C1581      O1582   1.260       .  A
O1582     Cr1587   1.998       .  S
O1583     Cr1587   1.994       .  S
O1583      C1584   1.265       .  A
Cr1585     O1588   1.794       .  S
Cr1586     O1588   1.794       .  S
Cr1587     O1588   1.793       .  S
C1589      C1590   1.422       .  A
C1589      C1594   1.403       .  A
C1590      C1591   1.418       .  A
C1590      H1595   1.083       .  S
C1591      C1592   1.414       .  A
C1592      C1593   1.403       .  A
C1592      H1596   1.083       .  S
C1593      C1600   1.493       .  S
C1593      C1594   1.400       .  A
C1594      H1597   1.084       .  S
C1598      C1603   1.404       .  A
C1599      C1600   1.407       .  A
C1599      H1604   1.083       .  S
C1600      C1601   1.408   1_655  A
C1601      H1605   1.083       .  S
C1602      C2082   1.485       .  S
C1602      C1603   1.407       .  A
C1603      H1606   1.083       .  S
C1607      C1608   1.395       .  A
C1608      C1609   1.397       .  A
C1608      H1613   1.084       .  S
C1610      C1611   1.415       .  A
C1610      H1614   1.082       .  S
C1611      C1612   1.417       .  A
C1612      H1615   1.083       .  S
C1616      C1617   1.413       .  A
C1616      C1621   1.417       .  A
C1617      C1618   1.402       .  A
C1617      H1622   1.083       .  S
C1618      C1834   1.494       .  S
C1618      C1851   1.402       .  A
C1619      C2082   1.403       .  A
C1619      C1620   1.401       .  A
C1619      H1623   1.084       .  S
C1620      C2085   1.415   1_545  A
C1621      C1852   1.421       .  A
C1621      H1624   1.083       .  S
O1625     Cr1643   2.001       .  S
O1625      C1633   1.261       .  A
O1626     Cr1643   1.992       .  S
O1626      C1627   1.265       .  A
C1627      O1628   1.261       .  A
C1627      C1723   1.484       .  S
O1628     Cr1644   1.999       .  S
O1629     Cr1644   1.998       .  S
O1629      C1630   1.266       .  A
C1630      O1631   1.259       .  A
C1630      C1705   1.487       .  S
O1631     Cr1645   1.996       .  S
O1632     Cr1645   1.999       .  S
O1632      C1633   1.266       .  A
C1633      C1736   1.488       .  S
O1634     Cr1643   2.013       .  S
O1634      C1642   1.266       .  A
O1635     Cr1643   1.990       .  S
O1635      C1636   1.264       .  A
C1636      O1637   1.267       .  A
C1636      C1665   1.506       .  S
O1637     Cr1644   2.020       .  S
O1638     Cr1644   1.989       .  S
O1638      C1639   1.264       .  A
C1639      O1640   1.268       .  A
C1639      C1647   1.504       .  S
O1640     Cr1645   2.019       .  S
O1641     Cr1645   1.987       .  S
O1641      C1642   1.263       .  A
C1642      C1676   1.500       .  S
Cr1643     O1646   1.796       .  S
Cr1644     O1646   1.797       .  S
Cr1645     O1646   1.796       .  S
C1647      C1648   1.417       .  A
C1647      C1652   1.415       .  A
C1648      C1765   1.420       .  A
C1648      H1653   1.083       .  S
C1649      C1697   1.481       .  S
C1649      C1764   1.420   1_554  A
C1649      C1650   1.397       .  A
C1650      C1767   1.397   1_554  A
C1650      H1654   1.084       .  S
C1651      C1660   1.491       .  S
C1651      C1766   1.397       .  A
C1651      C1652   1.404       .  A
C1652      H1655   1.083       .  S
C1656      C1657   1.408       .  A
C1657      C1658   1.406       .  A
C1657      H1662   1.083       .  S
C1659      C1776   1.405   1_554  A
C1659      H1663   1.082       .  S
C1660      C1775   1.405       .  A
C1660      C1661   1.405       .  A
C1661      H1664   1.083       .  S
C1665      C1666   1.411       .  A
C1665      C1786   1.418   1_655  A
C1666      C1667   1.401   1_655  A
C1666      H1671   1.083       .  S
C1668      C1669   1.405       .  A
C1668      H1672   1.084       .  S
C1669      C1700   1.491       .  S
C1670      C1781   1.418   1_454  A
C1670      H1673   1.083       .  S
C1674      C1694   1.492       .  S
C1674      C1791   1.419       .  A
C1674      C1679   1.403       .  A
C1675      C1790   1.419       .  A
C1675      C1908   1.418       .  A
C1675      H1680   1.083       .  S
C1676      C1677   1.412       .  A
C1677      H1681   1.083       .  S
C1678      C1888   1.487       .  S
C1678      C2025   1.405   1_554  A
C1678      C1679   1.405       .  A
C1679      H1682   1.084       .  S
O1683     Cr1701   2.018       .  S
O1683      C1691   1.267       .  A
O1684     Cr1701   1.989       .  S
O1684      C1685   1.265       .  A
C1685      O1686   1.268       .  A
C1685      C1732   1.503       .  S
O1686     Cr1702   2.016       .  S
O1687     Cr1702   1.996       .  S
O1687      C1688   1.263       .  A
C1688      O1689   1.269       .  A
C1688      C1707   1.509       .  S
O1689     Cr1703   2.024       .  S
O1690     Cr1703   1.979       .  S
O1690      C1691   1.260       .  A
C1691      C1727   1.501       .  S
O1692     Cr1701   2.001       .  S
O1692      C1700   1.261       .  A
O1693     Cr1701   2.001       .  S
O1693      C1694   1.265       .  A
C1694      O1695   1.260       .  A
O1695     Cr1702   2.000       .  S
O1696     Cr1702   1.996       .  S
O1696      C1697   1.266       .  A
C1697      O1698   1.258       .  A
O1698     Cr1703   1.991       .  S
O1699     Cr1703   2.000       .  S
O1699      C1700   1.267       .  A
Cr1701     O1704   1.799       .  S
Cr1702     O1704   1.798       .  S
Cr1703     O1704   1.798       .  S
C1705      C1706   1.419       .  A
C1705      C1710   1.402       .  A
C1706      C1707   1.416       .  A
C1706      H1711   1.083       .  S
C1707      C1708   1.419       .  A
C1708      C1709   1.409       .  A
C1708      H1712   1.083       .  S
C1709      C1716   1.498       .  S
C1709      C1710   1.402       .  A
C1710      H1713   1.084       .  S
C1714      C1719   1.407       .  A
C1715      C1716   1.410       .  A
C1715      H1720   1.083       .  S
C1716      C1717   1.411   1_655  A
C1717      H1721   1.083       .  S
C1718      C1719   1.406       .  A
C1719      H1722   1.083       .  S
C1723      C1724   1.404       .  A
C1724      C1725   1.401       .  A
C1724      H1729   1.084       .  S
C1726      C1727   1.413       .  A
C1726      H1730   1.083       .  S
C1727      C1728   1.414       .  A
C1728      H1731   1.083       .  S
C1732      C1733   1.416       .  A
C1732      C1737   1.419       .  A
C1733      C1734   1.401       .  A
C1733      H1738   1.083       .  S
C1734      C1950   1.502       .  S
C1734      C1967   1.400       .  A
C1735      C1736   1.404       .  A
C1735      H1739   1.084       .  S
C1737      C1968   1.420       .  A
C1737      H1740   1.083       .  S
O1741     Cr1759   2.001       .  S
O1741      C1749   1.261       .  A
O1742     Cr1759   1.992       .  S
O1742      C1743   1.265       .  A
C1743      O1744   1.261       .  A
C1743      C1839   1.484       .  S
O1744     Cr1760   1.999       .  S
O1745     Cr1760   1.998       .  S
O1745      C1746   1.266       .  A
C1746      O1747   1.259       .  A
C1746      C1821   1.487       .  S
O1747     Cr1761   1.996       .  S
O1748     Cr1761   1.999       .  S
O1748      C1749   1.266       .  A
C1749      C1852   1.488       .  S
O1750     Cr1759   2.013       .  S
O1750      C1758   1.266       .  A
O1751     Cr1759   1.990       .  S
O1751      C1752   1.264       .  A
C1752      O1753   1.267       .  A
C1752      C1781   1.506       .  S
O1753     Cr1760   2.019       .  S
O1754     Cr1760   1.989       .  S
O1754      C1755   1.264       .  A
C1755      O1756   1.268       .  A
C1755      C1763   1.504       .  S
O1756     Cr1761   2.019       .  S
O1757     Cr1761   1.987       .  S
O1757      C1758   1.263       .  A
C1758      C1792   1.500       .  S
Cr1759     O1762   1.796       .  S
Cr1760     O1762   1.797       .  S
Cr1761     O1762   1.796       .  S
C1763      C1764   1.417       .  A
C1763      C1768   1.415       .  A
C1764      H1769   1.083       .  S
C1765      C1813   1.481       .  S
C1765      C1766   1.397       .  A
C1766      H1770   1.084       .  S
C1767      C1776   1.491       .  S
C1767      C1768   1.404       .  A
C1768      H1771   1.083       .  S
C1772      C1773   1.408       .  A
C1773      C1774   1.406       .  A
C1773      H1778   1.083       .  S
C1775      H1779   1.082       .  S
C1776      C1777   1.405       .  A
C1777      H1780   1.083       .  S
C1781      C1782   1.411       .  A
C1782      C1783   1.401   1_655  A
C1782      H1787   1.083       .  S
C1784      C1785   1.405       .  A
C1784      H1788   1.084       .  S
C1785      C1816   1.491       .  S
C1786      H1789   1.083       .  S
C1790      C1810   1.492       .  S
C1790      C1795   1.403       .  A
C1791      C2024   1.418   1_554  A
C1791      H1796   1.083       .  S
C1792      C1793   1.412       .  A
C1793      H1797   1.083       .  S
C1794      C2004   1.486       .  S
C1794      C1909   1.405       .  A
C1794      C1795   1.404       .  A
C1795      H1798   1.084       .  S
O1799     Cr1817   2.018       .  S
O1799      C1807   1.267       .  A
O1800     Cr1817   1.989       .  S
O1800      C1801   1.265       .  A
C1801      O1802   1.268       .  A
C1801      C1848   1.503       .  S
O1802     Cr1818   2.016       .  S
O1803     Cr1818   1.996       .  S
O1803      C1804   1.263       .  A
C1804      O1805   1.269       .  A
C1804      C1823   1.509       .  S
O1805     Cr1819   2.023       .  S
O1806     Cr1819   1.979       .  S
O1806      C1807   1.260       .  A
C1807      C1843   1.501       .  S
O1808     Cr1817   2.001       .  S
O1808      C1816   1.261       .  A
O1809     Cr1817   2.001       .  S
O1809      C1810   1.265       .  A
C1810      O1811   1.260       .  A
O1811     Cr1818   2.000       .  S
O1812     Cr1818   1.996       .  S
O1812      C1813   1.266       .  A
C1813      O1814   1.258       .  A
O1814     Cr1819   1.991       .  S
O1815     Cr1819   2.000       .  S
O1815      C1816   1.267       .  A
Cr1817     O1820   1.799       .  S
Cr1818     O1820   1.798       .  S
Cr1819     O1820   1.798       .  S
C1821      C1822   1.419       .  A
C1821      C1826   1.402       .  A
C1822      C1823   1.416       .  A
C1822      H1827   1.083       .  S
C1823      C1824   1.419       .  A
C1824      C1825   1.409       .  A
C1824      H1828   1.083       .  S
C1825      C1832   1.498       .  S
C1825      C1826   1.402       .  A
C1826      H1829   1.084       .  S
C1830      C1835   1.407       .  A
C1831      C1832   1.410       .  A
C1831      H1836   1.083       .  S
C1832      C1833   1.411   1_655  A
C1833      H1837   1.083       .  S
C1834      C1835   1.406       .  A
C1835      H1838   1.083       .  S
C1839      C1840   1.404       .  A
C1840      C1841   1.401       .  A
C1840      H1845   1.084       .  S
C1842      C1843   1.413       .  A
C1842      H1846   1.083       .  S
C1843      C1844   1.414       .  A
C1844      H1847   1.083       .  S
C1848      C1849   1.416       .  A
C1848      C1853   1.419       .  A
C1849      C1850   1.401       .  A
C1849      H1854   1.083       .  S
C1850      C2066   1.502       .  S
C1850      C2083   1.400       .  A
C1851      C1852   1.404       .  A
C1851      H1855   1.084       .  S
C1853      C2084   1.420       .  A
C1853      H1856   1.083       .  S
O1857     Cr1875   2.013       .  S
O1857      C1865   1.267       .  A
O1858     Cr1875   1.998       .  S
O1858      C1859   1.264       .  A
C1859      O1860   1.269       .  A
C1859      C1955   1.511       .  S
O1860     Cr1876   2.024       .  S
O1861     Cr1876   1.985       .  S
O1861      C1862   1.262       .  A
C1862      O1863   1.266       .  A
C1862      C1937   1.502       .  S
O1863     Cr1877   2.017       .  S
O1864     Cr1877   1.990       .  S
O1864      C1865   1.266       .  A
C1865      C1968   1.501       .  S
O1866     Cr1875   2.005       .  S
O1866      C1874   1.260       .  A
O1867     Cr1875   1.993       .  S
O1867      C1868   1.266       .  A
C1868      O1869   1.259       .  A
C1868      C1897   1.480       .  S
O1869     Cr1876   1.994       .  S
O1870     Cr1876   1.997       .  S
O1870      C1871   1.267       .  A
C1871      O1872   1.261       .  A
C1871      C1879   1.488       .  S
O1872     Cr1877   2.000       .  S
O1873     Cr1877   2.000       .  S
O1873      C1874   1.264       .  A
C1874      C1908   1.493       .  S
Cr1875     O1878   1.797       .  S
Cr1876     O1878   1.797       .  S
Cr1877     O1878   1.798       .  S
C1879      C1880   1.419       .  A
C1879      C1884   1.402       .  A
C1880      C1997   1.417       .  A
C1880      H1885   1.083       .  S
C1881      C1929   1.510       .  S
C1881      C1996   1.417       .  A
C1881      C1882   1.420       .  A
C1882      C1999   1.409       .  A
C1882      H1886   1.083       .  S
C1883      C1892   1.498       .  S
C1883      C1998   1.409       .  A
C1883      C1884   1.401       .  A
C1884      H1887   1.084       .  S
C1888      C1889   1.406       .  A
C1889      C1890   1.404       .  A
C1889      H1894   1.083       .  S
C1891      C2008   1.410   1_545  A
C1891      H1895   1.083   1_554  S
C1892      C2007   1.410   1_565  A
C1892      C1893   1.411   1_655  A
C1893      H1896   1.083       .  S
C1897      C1898   1.397       .  A
C1897      C2018   1.418       .  A
C1898      C1899   1.398       .  A
C1898      H1903   1.084       .  S
C1900      C1901   1.415       .  A
C1900      H1904   1.083       .  S
C1901      C1932   1.502       .  S
C1902      C2013   1.418   1_554  A
C1902      H1905   1.083       .  S
C1906      C1926   1.502       .  S
C1906      C2023   1.420       .  A
C1906      C1911   1.416       .  A
C1907      C2022   1.420       .  A
C1907      H1912   1.083       .  S
C1908      C1909   1.403       .  A
C1909      H1913   1.084       .  S
C1910      C1911   1.401   1_545  A
C1911      H1914   1.082       .  S
O1915     Cr1933   2.001       .  S
O1915      C1923   1.261       .  A
O1916     Cr1933   1.995       .  S
O1916      C1917   1.263       .  A
C1917      O1918   1.260       .  A
C1917      C1964   1.487       .  S
O1918     Cr1934   2.001       .  S
O1919     Cr1934   1.994       .  S
O1919      C1920   1.266       .  A
C1920      O1921   1.259       .  A
C1920      C1939   1.480       .  S
O1921     Cr1935   1.993       .  S
O1922     Cr1935   1.999       .  S
O1922      C1923   1.267       .  A
C1923      C1959   1.490       .  S
O1924     Cr1933   2.013       .  S
O1924      C1932   1.266       .  A
O1925     Cr1933   1.992       .  S
O1925      C1926   1.266       .  A
C1926      O1927   1.268       .  A
O1927     Cr1934   2.014       .  S
O1928     Cr1934   1.999       .  S
O1928      C1929   1.264       .  A
C1929      O1930   1.270       .  A
O1930     Cr1935   2.024       .  S
O1931     Cr1935   1.989       .  S
O1931      C1932   1.263       .  A
Cr1933     O1936   1.797       .  S
Cr1934     O1936   1.796       .  S
Cr1935     O1936   1.795       .  S
C1937      C1938   1.416       .  A
C1937      C1942   1.415       .  A
C1938      C1939   1.419       .  A
C1938      H1943   1.083       .  S
C1939      C1940   1.397       .  A
C1940      C1941   1.398       .  A
C1940      H1944   1.084       .  S
C1941      C1948   1.489       .  S
C1941      C1942   1.403       .  A
C1942      H1945   1.083       .  S
C1946      C1951   1.411       .  A
C1947      C1948   1.403   1_545  A
C1947      H1952   1.082       .  S
C1948      C1949   1.404       .  A
C1949      H1953   1.083       .  S
C1950      C1951   1.409       .  A
C1951      H1954   1.083       .  S
C1955      C1956   1.419       .  A
C1956      C1957   1.408   1_655  A
C1956      H1961   1.083       .  S
C1958      C1959   1.402       .  A
C1958      H1962   1.084       .  S
C1959      C1960   1.421       .  A
C1960      H1963   1.083       .  S
C1964      C1965   1.403       .  A
C1964      C1969   1.415       .  A
C1965      C1966   1.405   1_565  A
C1965      H1970   1.084       .  S
C1967      C1968   1.415       .  A
C1967      H1971   1.083       .  S
C1969      H1972   1.083       .  S
O1973     Cr1991   2.013       .  S
O1973      C1981   1.267       .  A
O1974     Cr1991   1.999       .  S
O1974      C1975   1.264       .  A
C1975      O1976   1.269       .  A
C1975      C2071   1.511       .  S
O1976     Cr1992   2.024       .  S
O1977     Cr1992   1.985       .  S
O1977      C1978   1.262       .  A
C1978      O1979   1.266       .  A
C1978      C2053   1.502       .  S
O1979     Cr1993   2.017       .  S
O1980     Cr1993   1.990       .  S
O1980      C1981   1.266       .  A
C1981      C2084   1.501       .  S
O1982     Cr1991   2.005       .  S
O1982      C1990   1.260       .  A
O1983     Cr1991   1.993       .  S
O1983      C1984   1.266       .  A
C1984      O1985   1.259       .  A
C1984      C2013   1.480       .  S
O1985     Cr1992   1.994       .  S
O1986     Cr1992   1.997       .  S
O1986      C1987   1.267       .  A
C1987      O1988   1.261       .  A
C1987      C1995   1.488       .  S
O1988     Cr1993   2.000       .  S
O1989     Cr1993   2.000       .  S
O1989      C1990   1.264       .  A
C1990      C2024   1.493       .  S
Cr1991     O1994   1.797       .  S
Cr1992     O1994   1.797       .  S
Cr1993     O1994   1.798       .  S
C1995      C1996   1.419   1_556  A
C1995      C2000   1.402       .  A
C1996      H2001   1.083       .  S
C1997      C2045   1.510       .  S
C1997      C1998   1.420       .  A
C1998      H2002   1.083       .  S
C1999      C2008   1.498       .  S
C1999      C2000   1.401   1_554  A
C2000      H2003   1.084       .  S
C2004      C2005   1.406       .  A
C2005      C2006   1.404       .  A
C2005      H2010   1.083       .  S
C2007      H2011   1.083       .  S
C2008      C2009   1.411   1_655  A
C2009      H2012   1.083       .  S
C2013      C2014   1.397       .  A
C2014      C2015   1.398   1_556  A
C2014      H2019   1.084       .  S
C2016      C2017   1.415       .  A
C2016      H2020   1.083       .  S
C2017      C2048   1.502       .  S
C2018      H2021   1.083       .  S
C2022      C2042   1.502       .  S
C2022      C2027   1.416       .  A
C2023      H2028   1.083       .  S
C2024      C2025   1.403       .  A
C2025      H2029   1.084       .  S
C2026      C2027   1.401   1_545  A
C2027      H2030   1.082       .  S
O2031     Cr2049   2.001       .  S
O2031      C2039   1.261       .  A
O2032     Cr2049   1.995       .  S
O2032      C2033   1.263       .  A
C2033      O2034   1.260       .  A
C2033      C2080   1.487       .  S
O2034     Cr2050   2.001       .  S
O2035     Cr2050   1.994       .  S
O2035      C2036   1.266       .  A
C2036      O2037   1.259       .  A
C2036      C2055   1.480       .  S
O2037     Cr2051   1.993       .  S
O2038     Cr2051   2.000       .  S
O2038      C2039   1.267       .  A
C2039      C2075   1.490       .  S
O2040     Cr2049   2.013       .  S
O2040      C2048   1.266       .  A
O2041     Cr2049   1.992       .  S
O2041      C2042   1.266       .  A
C2042      O2043   1.268       .  A
O2043     Cr2050   2.014       .  S
O2044     Cr2050   1.999       .  S
O2044      C2045   1.264       .  A
C2045      O2046   1.270       .  A
O2046     Cr2051   2.024       .  S
O2047     Cr2051   1.989       .  S
O2047      C2048   1.263       .  A
Cr2049     O2052   1.797       .  S
Cr2050     O2052   1.796       .  S
Cr2051     O2052   1.795       .  S
C2053      C2054   1.416       .  A
C2053      C2058   1.415       .  A
C2054      C2055   1.419       .  A
C2054      H2059   1.083       .  S
C2055      C2056   1.397       .  A
C2056      C2057   1.398       .  A
C2056      H2060   1.084       .  S
C2057      C2064   1.489       .  S
C2057      C2058   1.403       .  A
C2058      H2061   1.083       .  S
C2062      C2067   1.411       .  A
C2063      C2064   1.403   1_545  A
C2063      H2068   1.082       .  S
C2064      C2065   1.404       .  A
C2065      H2069   1.083       .  S
C2066      C2067   1.409       .  A
C2067      H2070   1.083       .  S
C2071      C2072   1.419       .  A
C2072      C2073   1.408   1_655  A
C2072      H2077   1.083       .  S
C2074      C2075   1.402       .  A
C2074      H2078   1.084       .  S
C2075      C2076   1.421       .  A
C2076      H2079   1.083       .  S
C2080      C2081   1.403       .  A
C2080      C2085   1.415       .  A
C2081      C2082   1.405   1_565  A
C2081      H2086   1.084       .  S
C2083      C2084   1.415       .  A
C2083      H2087   1.083       .  S
C2085      H2088   1.083       .  S
