geometry optimzed in LAMMPS
_audit_creation_date              2020-11-30 
_audit_creation_method            'lammps2cif' 
_symmetry_space_group_name_H-M    'P1' 
_symmetry_Int_Tables_number       1 
_symmetry_cell_setting            triclinic 
loop_ 
_symmetry_equiv_pos_as_xyz 
  x,y,z 
_cell_length_a                    28.85012209 
_cell_length_b                    28.84953335188452 
_cell_length_c                    23.100050275849885 
_cell_angle_alpha                 89.99854710340705 
_cell_angle_beta                  89.99845271968012 
_cell_angle_gamma                 89.99934510957026 
loop_ 
_atom_site_label 
_atom_site_type_symbol 
_atom_site_fract_x 
_atom_site_fract_y 
_atom_site_fract_z 
_atom_site_charge 
C1          C  0.36010760  0.11024017  0.31179376     0.81700
N2          N  0.36131804  0.07579039  0.27178445    -0.76600
C3          C  0.32781014  0.04276111  0.27142084     0.84100
N4          N  0.29358018  0.04381713  0.31170869    -0.76600
C5          C  0.29254143  0.07801688  0.35203555     0.84200
N6          N  0.32562609  0.11146975  0.35175965    -0.78300
O7          O  0.57367089  0.32392322  0.26378278    -0.71500
O8          O  0.47536011  0.22545801  0.26378076    -0.72500
O9          O  0.47527793  0.32385213  0.26376802    -0.61100
O10         O  0.57375321  0.22552852  0.26381920    -0.69500
O11         O  0.57372878  0.22554821  0.36005949    -0.69100
O12         O  0.47526508  0.32385900  0.36000848    -0.60300
O13         O  0.47533623  0.22546653  0.36002108    -0.72800
O14         O  0.57365754  0.32394130  0.36002310    -0.71600
Cu15       Cu  0.52451632  0.27469000  0.26038800     1.04600
Cu16       Cu  0.52449633  0.27470421  0.36342719     1.04300
C17         C  0.58902607  0.33931504  0.31189973     0.94700
C18         C  0.45998579  0.21008007  0.31189701     0.93800
C19         C  0.45988788  0.33921665  0.31188459     0.86000
C20         C  0.58912417  0.21017680  0.31195160     0.92200
C21         C  0.68896727  0.11030047  0.31211238     0.81700
N22         N  0.68774091  0.07581469  0.27215387    -0.76600
C23         C  0.72119148  0.04272752  0.27189061     0.84100
N24         N  0.75538692  0.04376827  0.31222180    -0.76600
C25         C  0.75643986  0.07800250  0.35250313     0.84200
N26         N  0.72341254  0.11151319  0.35212698    -0.78300
C27         C  0.36003629  0.43908423  0.31195927     0.81700
N28         N  0.32558390  0.43787608  0.35196677    -0.76600
C29         C  0.29255466  0.47138505  0.35232553     0.84100
N30         N  0.29361449  0.50561430  0.31203581    -0.76600
C31         C  0.32781727  0.50665049  0.27171142     0.84200
N32         N  0.36126946  0.47356477  0.27199179    -0.78300
C33         C  0.68889695  0.43916285  0.31179931     0.81700
N34         N  0.72337607  0.43793538  0.35176650    -0.76600
C35         C  0.75645793  0.47139085  0.35204234     0.84100
N36         N  0.75541968  0.50559071  0.31171356    -0.76600
C37         C  0.72119251  0.50664456  0.27142427     0.84200
N38         N  0.68768699  0.47361289  0.27178801    -0.78300
C39         C  0.36003930  0.93909639  0.18680278     0.81700
N40         N  0.36126751  0.97357962  0.22676457    -0.76600
C41         C  0.32781568  0.00666544  0.22703521     0.84100
N42         N  0.29361762  0.00562657  0.18670710    -0.76600
C43         C  0.29256280  0.97139486  0.14642262     0.84200
N44         N  0.32559153  0.93788533  0.14679155    -0.78300
O45         O  0.57372927  0.72552879  0.23504821    -0.71500
O46         O  0.47525651  0.82385542  0.23504982    -0.72500
O47         O  0.47533646  0.72546066  0.23503271    -0.61100
O48         O  0.57364995  0.82392279  0.23509013    -0.69500
O49         O  0.57367467  0.82394785  0.13884968    -0.69100
O50         O  0.47535044  0.72547611  0.13879241    -0.60300
O51         O  0.47528210  0.82386907  0.13880948    -0.72800
O52         O  0.57374262  0.72555582  0.13880772    -0.71600
Cu53       Cu  0.52449235  0.77469110  0.23845502     1.04600
Cu54       Cu  0.52451314  0.77471302  0.13541574     1.04300
C55         C  0.58911909  0.71018082  0.18692314     0.94700
C56         C  0.45988633  0.83922394  0.18692546     0.93800
C57         C  0.45998130  0.71008582  0.18690726     0.86000
C58         C  0.58902539  0.83931687  0.18698238     0.92200
C59         C  0.68890791  0.93915302  0.18712593     0.81700
N60         N  0.68769440  0.97360135  0.22713709    -0.76600
C61         C  0.72120143  0.00663152  0.22750536     0.84100
N62         N  0.75543320  0.00557821  0.18721973    -0.76600
C63         C  0.75647518  0.97137982  0.14689128     0.84200
N64         N  0.72339141  0.93792609  0.14716243    -0.78300
C65         C  0.36011456  0.61023328  0.18696259     0.81700
N66         N  0.36132260  0.57577962  0.22696909    -0.76600
C67         C  0.32781885  0.54274602  0.22732331     0.84100
N68         N  0.29359465  0.54380251  0.18703022    -0.76600
C69         C  0.29255826  0.57800598  0.14670614     0.84200
N70         N  0.32563854  0.61146333  0.14699142    -0.78300
C71         C  0.68896676  0.61030966  0.18680093     0.81700
N72         N  0.72341629  0.61152123  0.14678945    -0.76600
C73         C  0.75644502  0.57801183  0.14642224     0.84100
N74         N  0.75538847  0.54377961  0.18670823    -0.76600
C75         C  0.72118852  0.54274011  0.22703628     0.84200
N76         N  0.68773691  0.57582604  0.22676429    -0.78300
O77         O  0.97526884  0.82387134  0.01385438    -0.71500
O78         O  0.07373762  0.72554221  0.01380135    -0.72500
O79         O  0.97534645  0.72547640  0.01381486    -0.61100
O80         O  0.07365973  0.82393678  0.01381549    -0.69500
O81         O  0.07368063  0.82392425  0.11005585    -0.69100
O82         O  0.97535393  0.72545148  0.11005503    -0.60300
O83         O  0.07374674  0.72552908  0.11004167    -0.72800
O84         O  0.97528786  0.82384701  0.11009477    -0.71600
Cu85       Cu  0.02450274  0.77470733  0.01042236     1.04600
Cu86       Cu  0.02451783  0.77468718  0.11346151     1.04300
C87         C  0.95989671  0.83922241  0.06198651     0.94700
C88         C  0.08912409  0.71017266  0.06191693     0.93800
C89         C  0.95998838  0.71008097  0.06193034     0.86000
C90         C  0.08903186  0.83931355  0.06193134     0.92200
C91         C  0.18889982  0.93916466  0.06180759     0.81700
N92         N  0.22338401  0.93793543  0.10176722    -0.76600
C93         C  0.25646767  0.97138894  0.10203663     0.84100
N94         N  0.25542532  0.00558988  0.06170917    -0.76600
C95         C  0.22119250  0.00664621  0.02142690     0.84200
N96         N  0.18768562  0.97361544  0.02179703    -0.78300
C97         C  0.18897154  0.61030015  0.06197248     0.81700
N98         N  0.18773757  0.57582069  0.02200541    -0.76600
C99         C  0.22119417  0.54273913  0.02171619     0.84100
N100        N  0.25540209  0.54377863  0.06203168    -0.76600
C101        C  0.25646265  0.57800686  0.10232076     0.84200
N102        N  0.22342884  0.61151102  0.10197065    -0.78300
C103        C  0.86005452  0.93910069  0.06212748     0.81700
N104        N  0.82560403  0.93788455  0.10213723    -0.76600
C105        C  0.79257064  0.97138927  0.10250299     0.84100
N106        N  0.79362355  0.00562174  0.06221708    -0.76600
C107        C  0.82782453  0.00666645  0.02189040     0.84200
N108        N  0.86128082  0.97358470  0.02216382    -0.78300
C109        C  0.86011347  0.61023650  0.06180491     0.81700
N110        N  0.82562877  0.61146681  0.10176623    -0.76600
C111        C  0.79254099  0.57801735  0.10203481     0.84100
N112        N  0.79357971  0.54381961  0.06170523    -0.76600
C113        C  0.82781294  0.54276217  0.02142143     0.84200
N114        N  0.86132415  0.57578852  0.02179232    -0.78300
O115        O  0.07372198  0.22553683  0.38876743    -0.71500
O116        O  0.97526113  0.32385327  0.38876733    -0.72500
O117        O  0.07365367  0.32393248  0.38875356    -0.61100
O118        O  0.97532924  0.22545805  0.38880627    -0.69500
O119        O  0.97535014  0.22547857  0.48504666    -0.69100
O120        O  0.07366111  0.32394068  0.48499391    -0.60300
O121        O  0.97527044  0.32387298  0.48500776    -0.72800
O122        O  0.07374093  0.22554576  0.48500773    -0.71600
Cu123      Cu  0.02449099  0.27469474  0.38537399     1.04600
Cu124      Cu  0.02450613  0.27471005  0.48841315     1.04300
C125        C  0.08911327  0.21017824  0.43688406     0.94700
C126        C  0.95988396  0.33922621  0.43688395     0.93800
C127        C  0.08901865  0.33932007  0.43687015     0.86000
C128        C  0.95997830  0.21008498  0.43693909     0.92200
C129        C  0.18888894  0.43916901  0.43695317     0.81700
N130        N  0.18768151  0.47361933  0.47696269    -0.76600
C131        C  0.22119283  0.50664559  0.47732656     0.84100
N132        N  0.25542331  0.50558526  0.43703937    -0.76600
C133        C  0.25645868  0.47138526  0.39671258     0.84200
N134        N  0.22337084  0.43793578  0.39698835    -0.78300
C135        C  0.18895854  0.11030293  0.43678738     0.81700
N136        N  0.18772970  0.07582184  0.47675494    -0.76600
C137        C  0.22118669  0.04274063  0.47703600     0.84100
N138        N  0.25539027  0.04378261  0.43671265    -0.76600
C139        C  0.25644565  0.07801223  0.39642312     0.84200
N140        N  0.22341163  0.11151625  0.39678117    -0.78300
C141        C  0.86010703  0.11023751  0.43710630     0.81700
N142        N  0.82562021  0.11146460  0.39715011    -0.76600
C143        C  0.79253503  0.07801274  0.39688898     0.84100
N144        N  0.79357883  0.04381501  0.43722054    -0.76600
C145        C  0.82781416  0.04276091  0.47749957     0.84200
N146        N  0.86132268  0.07578987  0.47712108    -0.78300
C147        C  0.86004112  0.43910348  0.43678710     0.81700
N148        N  0.82558670  0.43789017  0.39678535    -0.76600
C149        C  0.79255380  0.47139527  0.39642742     0.84100
N150        N  0.79361180  0.50562625  0.43671299    -0.76600
C151        C  0.82781698  0.50666830  0.47703195     0.84200
N152        N  0.86127256  0.47358588  0.47675049    -0.78300
C153        C  0.15369708  0.40403010  0.43690527    -0.11800
C154        C  0.12415304  0.37449102  0.43686991    -0.13400
C155        C  0.15381641  0.14549210  0.43683320    -0.11800
C156        C  0.12427975  0.17503897  0.43687009    -0.13400
C157        C  0.89529892  0.14537609  0.43703693    -0.11800
C158        C  0.92484347  0.17491467  0.43697563    -0.13400
C159        C  0.89518180  0.40391321  0.43683284    -0.11800
C160        C  0.92471775  0.37436557  0.43686983    -0.13400
C161        C  0.15371035  0.90402342  0.06186587    -0.13400
C162        C  0.12416680  0.87448383  0.06191373    -0.13400
C163        C  0.92473083  0.87436223  0.06201967    -0.11800
C164        C  0.89519493  0.90390985  0.06207057    -0.13400
C165        C  0.12429098  0.67503408  0.06191277    -0.11800
C166        C  0.15382860  0.64548818  0.06193749    -0.13400
C167        C  0.92485249  0.67491150  0.06191199    -0.11800
C168        C  0.89530696  0.64537394  0.06186355    -0.13400
C169        C  0.62416565  0.87448180  0.18701646    -0.11800
C170        C  0.65371487  0.90401549  0.18706754    -0.13400
C171        C  0.42484465  0.67491709  0.18690131    -0.11800
C172        C  0.39530069  0.64537795  0.18692544    -0.13400
C173        C  0.62428923  0.67504588  0.18690444    -0.11800
C174        C  0.65382796  0.64550137  0.18685686    -0.13400
C175        C  0.42471659  0.87435948  0.18690797    -0.11800
C176        C  0.39517823  0.90390443  0.18686016    -0.13400
C177        C  0.42471677  0.37435065  0.31188363    -0.11800
C178        C  0.39517694  0.40389417  0.31191595    -0.13400
C179        C  0.62429356  0.17504096  0.31198682    -0.11800
C180        C  0.65383060  0.14549463  0.31204565    -0.13400
C181        C  0.65370810  0.40402106  0.31184860    -0.11800
C182        C  0.62416270  0.37448343  0.31188642    -0.13400
C183        C  0.39529952  0.14537869  0.31184363    -0.11800
C184        C  0.42484740  0.17491370  0.31188219    -0.13400
C185        C  0.36010771  0.11024014  0.81179373     0.81700
N186        N  0.36131806  0.07579039  0.77178439    -0.76600
C187        C  0.32781019  0.04276110  0.77142070     0.84100
N188        N  0.29358019  0.04381710  0.81170848    -0.76600
C189        C  0.29254150  0.07801687  0.85203540     0.84200
N190        N  0.32562599  0.11146965  0.85175969    -0.78300
O191        O  0.57367080  0.32392306  0.76378272    -0.71500
O192        O  0.47536025  0.22545814  0.76378073    -0.72500
O193        O  0.47527786  0.32385207  0.76376799    -0.61100
O194        O  0.57375311  0.22552836  0.76381939    -0.69500
O195        O  0.57372874  0.22554833  0.86005978    -0.69100
O196        O  0.47526501  0.32385913  0.86000845    -0.60300
O197        O  0.47533626  0.22546671  0.86002108    -0.72800
O198        O  0.57365747  0.32394141  0.86002300    -0.71600
Cu199      Cu  0.52451621  0.27468994  0.76038805     1.04600
Cu200      Cu  0.52449626  0.27470441  0.86342731     1.04300
C201        C  0.58902601  0.33931502  0.81189963     0.94700
C202        C  0.45998583  0.21008021  0.81189705     0.93800
C203        C  0.45988789  0.33921669  0.81188449     0.86000
C204        C  0.58912409  0.21017679  0.81195179     0.92200
C205        C  0.68896722  0.11030034  0.81211233     0.81700
N206        N  0.68774091  0.07581462  0.77215386    -0.76600
C207        C  0.72119150  0.04272743  0.77189054     0.84100
N208        N  0.75538692  0.04376827  0.81222196    -0.76600
C209        C  0.75643984  0.07800245  0.85250310     0.84200
N210        N  0.72341240  0.11151320  0.85212697    -0.78300
C211        C  0.36003628  0.43908426  0.81195915     0.81700
N212        N  0.32558390  0.43787608  0.85196659    -0.76600
C213        C  0.29255471  0.47138502  0.85232539     0.84100
N214        N  0.29361453  0.50561426  0.81203574    -0.76600
C215        C  0.32781729  0.50665048  0.77171128     0.84200
N216        N  0.36126932  0.47356487  0.77199166    -0.78300
C217        C  0.68889696  0.43916276  0.81179899     0.81700
N218        N  0.72337597  0.43793526  0.85176637    -0.76600
C219        C  0.75645782  0.47139085  0.85204232     0.84100
N220        N  0.75541961  0.50559072  0.81171363    -0.76600
C221        C  0.72119245  0.50664457  0.77142419     0.84200
N222        N  0.68768700  0.47361287  0.77178776    -0.78300
C223        C  0.36003927  0.93909637  0.68680279     0.81700
N224        N  0.36126738  0.97357962  0.72676452    -0.76600
C225        C  0.32781563  0.00666552  0.72703512     0.84100
N226        N  0.29361745  0.00562650  0.68670706    -0.76600
C227        C  0.29256271  0.97139482  0.64642268     0.84200
N228        N  0.32559146  0.93788520  0.64679157    -0.78300
O229        O  0.57372950  0.72552891  0.73504791    -0.71500
O230        O  0.47525672  0.82385553  0.73504991    -0.72500
O231        O  0.47533645  0.72546073  0.73503252    -0.61100
O232        O  0.57365012  0.82392296  0.73509006    -0.69500
O233        O  0.57367476  0.82394790  0.63884983    -0.69100
O234        O  0.47535033  0.72547605  0.63879214    -0.60300
O235        O  0.47528214  0.82386895  0.63880948    -0.72800
O236        O  0.57374254  0.72555583  0.63880746    -0.71600
Cu237      Cu  0.52449246  0.77469145  0.73845489     1.04600
Cu238      Cu  0.52451307  0.77471292  0.63541566     1.04300
C239        C  0.58911915  0.71018085  0.68692297     0.94700
C240        C  0.45988638  0.83922391  0.68692539     0.93800
C241        C  0.45998126  0.71008578  0.68690713     0.86000
C242        C  0.58902552  0.83931704  0.68698233     0.92200
C243        C  0.68890787  0.93915298  0.68712579     0.81700
N244        N  0.68769444  0.97360136  0.72713705    -0.76600
C245        C  0.72120144  0.00663145  0.72750526     0.84100
N246        N  0.75543329  0.00557817  0.68721974    -0.76600
C247        C  0.75647518  0.97137973  0.64689121     0.84200
N248        N  0.72339140  0.93792615  0.64716233    -0.78300
C249        C  0.36011447  0.61023345  0.68696270     0.81700
N250        N  0.36132253  0.57577973  0.72696910    -0.76600
C251        C  0.32781884  0.54274609  0.72732323     0.84100
N252        N  0.29359471  0.54380263  0.68703008    -0.76600
C253        C  0.29255832  0.57800610  0.64670604     0.84200
N254        N  0.32563848  0.61146341  0.64699138    -0.78300
C255        C  0.68896684  0.61030972  0.68680094     0.81700
N256        N  0.72341630  0.61152113  0.64678948    -0.76600
C257        C  0.75644508  0.57801185  0.64642223     0.84100
N258        N  0.75538840  0.54377957  0.68670824    -0.76600
C259        C  0.72118856  0.54274016  0.72703622     0.84200
N260        N  0.68773695  0.57582616  0.72676421    -0.78300
O261        O  0.97526868  0.82387126  0.51385466    -0.71500
O262        O  0.07373765  0.72554213  0.51380129    -0.72500
O263        O  0.97534662  0.72547647  0.51381478    -0.61100
O264        O  0.07365966  0.82393664  0.51381572    -0.69500
O265        O  0.07368044  0.82392428  0.61005606    -0.69100
O266        O  0.97535393  0.72545166  0.61005508    -0.60300
O267        O  0.07374693  0.72552914  0.61004166    -0.72800
O268        O  0.97528785  0.82384708  0.61009495    -0.71600
Cu269      Cu  0.02450262  0.77470723  0.51042239     1.04600
Cu270      Cu  0.02451774  0.77468745  0.61346162     1.04300
C271        C  0.95989670  0.83922250  0.56198666     0.94700
C272        C  0.08912411  0.71017273  0.56191696     0.93800
C273        C  0.95998845  0.71008102  0.56193032     0.86000
C274        C  0.08903174  0.83931355  0.56193147     0.92200
C275        C  0.18889985  0.93916463  0.56180741     0.81700
N276        N  0.22338398  0.93793537  0.60176714    -0.76600
C277        C  0.25646761  0.97138890  0.60203661     0.84100
N278        N  0.25542520  0.00558978  0.56170922    -0.76600
C279        C  0.22119249  0.00664622  0.52142687     0.84200
N280        N  0.18768558  0.97361542  0.52179690    -0.78300
C281        C  0.18897169  0.61030025  0.56197240     0.81700
N282        N  0.18773775  0.57582073  0.52200543    -0.76600
C283        C  0.22119427  0.54273922  0.52171619     0.84100
N284        N  0.25540211  0.54377878  0.56203170    -0.76600
C285        C  0.25646264  0.57800702  0.60232067     0.84200
N286        N  0.22342878  0.61151124  0.60197049    -0.78300
C287        C  0.86005448  0.93910059  0.56212748     0.81700
N288        N  0.82560405  0.93788455  0.60213722    -0.76600
C289        C  0.79257066  0.97138927  0.60250311     0.84100
N290        N  0.79362358  0.00562175  0.56221697    -0.76600
C291        C  0.82782450  0.00666640  0.52189039     0.84200
N292        N  0.86128079  0.97358459  0.52216375    -0.78300
C293        C  0.86011348  0.61023642  0.56180512     0.81700
N294        N  0.82562876  0.61146675  0.60176634    -0.76600
C295        C  0.79254091  0.57801731  0.60203488     0.84100
N296        N  0.79357973  0.54381961  0.56170514    -0.76600
C297        C  0.82781293  0.54276210  0.52142154     0.84200
N298        N  0.86132425  0.57578848  0.52179243    -0.78300
O299        O  0.07372184  0.22553697  0.88876758    -0.71500
O300        O  0.97526092  0.32385326  0.88876761    -0.72500
O301        O  0.07365366  0.32393251  0.88875379    -0.61100
O302        O  0.97532930  0.22545791  0.88880623    -0.69500
O303        O  0.97535014  0.22547853  0.98504655    -0.69100
O304        O  0.07366101  0.32394078  0.98499412    -0.60300
O305        O  0.97527027  0.32387315  0.98500790    -0.72800
O306        O  0.07374085  0.22554606  0.98500799    -0.71600
Cu307      Cu  0.02449102  0.27469453  0.88537394     1.04600
Cu308      Cu  0.02450620  0.27471011  0.98841323     1.04300
C309        C  0.08911321  0.21017842  0.93688418     0.94700
C310        C  0.95988382  0.33922628  0.93688408     0.93800
C311        C  0.08901854  0.33932016  0.93687028     0.86000
C312        C  0.95997833  0.21008494  0.93693908     0.92200
C313        C  0.18888892  0.43916895  0.93695313     0.81700
N314        N  0.18768152  0.47361925  0.97696264    -0.76600
C315        C  0.22119281  0.50664547  0.97732662     0.84100
N316        N  0.25542331  0.50558518  0.93703942    -0.76600
C317        C  0.25645865  0.47138519  0.89671257     0.84200
N318        N  0.22337087  0.43793577  0.89698822    -0.78300
C319        C  0.18895845  0.11030291  0.93678739     0.81700
N320        N  0.18772969  0.07582171  0.97675486    -0.76600
C321        C  0.22118669  0.04274061  0.97703600     0.84100
N322        N  0.25539028  0.04378265  0.93671266    -0.76600
C323        C  0.25644560  0.07801215  0.89642309     0.84200
N324        N  0.22341157  0.11151621  0.89678115    -0.78300
C325        C  0.86010698  0.11023741  0.93710621     0.81700
N326        N  0.82562017  0.11146454  0.89715006    -0.76600
C327        C  0.79253489  0.07801280  0.89688903     0.84100
N328        N  0.79357876  0.04381510  0.93722064    -0.76600
C329        C  0.82781403  0.04276096  0.97749969     0.84200
N330        N  0.86132272  0.07578999  0.97712115    -0.78300
C331        C  0.86004106  0.43910352  0.93678718     0.81700
N332        N  0.82558657  0.43789014  0.89678543    -0.76600
C333        C  0.79255367  0.47139520  0.89642750     0.84100
N334        N  0.79361167  0.50562628  0.93671300    -0.76600
C335        C  0.82781693  0.50666837  0.97703188     0.84200
N336        N  0.86127258  0.47358592  0.97675053    -0.78300
C337        C  0.15369702  0.40403006  0.93690515    -0.11800
C338        C  0.12415294  0.37449108  0.93686983    -0.13400
C339        C  0.15381637  0.14549206  0.93683311    -0.11800
C340        C  0.12427970  0.17503909  0.93687011    -0.13400
C341        C  0.89529903  0.14537607  0.93703689    -0.11800
C342        C  0.92484345  0.17491458  0.93697557    -0.13400
C343        C  0.89518176  0.40391321  0.93683282    -0.11800
C344        C  0.92471764  0.37436561  0.93686987    -0.13400
C345        C  0.15371032  0.90402337  0.56186570    -0.13400
C346        C  0.12416680  0.87448383  0.56191361    -0.13400
C347        C  0.92473082  0.87436216  0.56201964    -0.11800
C348        C  0.89519491  0.90390986  0.56207050    -0.13400
C349        C  0.12429108  0.67503418  0.56191288    -0.11800
C350        C  0.15382860  0.64548835  0.56193746    -0.13400
C351        C  0.92485263  0.67491146  0.56191208    -0.11800
C352        C  0.89530698  0.64537381  0.56186363    -0.13400
C353        C  0.62416566  0.87448183  0.68701628    -0.11800
C354        C  0.65371496  0.90401558  0.68706735    -0.13400
C355        C  0.42484471  0.67491718  0.68690137    -0.11800
C356        C  0.39530064  0.64537809  0.68692557    -0.13400
C357        C  0.62428923  0.67504592  0.68690454    -0.11800
C358        C  0.65382796  0.64550137  0.68685687    -0.13400
C359        C  0.42471657  0.87435946  0.68690786    -0.11800
C360        C  0.39517815  0.90390436  0.68686013    -0.13400
C361        C  0.42471670  0.37435066  0.81188338    -0.11800
C362        C  0.39517702  0.40389423  0.81191572    -0.13400
C363        C  0.62429352  0.17504090  0.81198691    -0.11800
C364        C  0.65383050  0.14549456  0.81204564    -0.13400
C365        C  0.65370818  0.40402094  0.81184836    -0.11800
C366        C  0.62416266  0.37448343  0.81188626    -0.13400
C367        C  0.39529952  0.14537863  0.81184361    -0.11800
C368        C  0.42484751  0.17491368  0.81188228    -0.13400
loop_ 
_geom_bond_atom_site_label_1 
_geom_bond_atom_site_label_2 
_geom_bond_distance 
_geom_bond_site_symmetry_2 
_ccdc_geom_bond_type 
C1            N2   1.358       .  A
C1            N6   1.358       .  A
C1          C183   1.435       .  S
N2            C3   1.357       .  A
C3            N4   1.357       .  A
C3           C41   1.461       .  S
N4            C5   1.357       .  A
C5            N6   1.357       .  A
C5          C139   1.461       .  S
O7          Cu15   2.009       .  S
O7           C17   1.276       .  A
O8          Cu15   2.009       .  S
O8           C18   1.276       .  A
O9          Cu15   2.009       .  S
O9           C19   1.276       .  A
O10         Cu15   2.009       .  S
O10          C20   1.276       .  A
O11         Cu16   2.009       .  S
O11          C20   1.276       .  A
O12         Cu16   2.009       .  S
O12          C19   1.276       .  A
O13         Cu16   2.009       .  S
O13          C18   1.276       .  A
O14         Cu16   2.009       .  S
O14          C17   1.276       .  A
Cu15        Cu16   2.380       .  S
C17         C182   1.434       .  S
C18         C184   1.434       .  S
C19         C177   1.434       .  S
C20         C179   1.434       .  S
C21          N22   1.358       .  A
C21          N26   1.358       .  A
C21         C180   1.435       .  S
N22          C23   1.357       .  A
C23          N24   1.357       .  A
C23          C61   1.461       .  S
N24          C25   1.357       .  A
C25          N26   1.357       .  A
C25         C143   1.461       .  S
C27          N28   1.358       .  A
C27          N32   1.358       .  A
C27         C178   1.435       .  S
N28          C29   1.357       .  A
C29          N30   1.357       .  A
C29         C133   1.461       .  S
N30          C31   1.357       .  A
C31          N32   1.357       .  A
C31          C67   1.461       .  S
C33          N34   1.358       .  A
C33          N38   1.358       .  A
C33         C181   1.435       .  S
N34          C35   1.357       .  A
C35          N36   1.357       .  A
C35         C149   1.461       .  S
N36          C37   1.357       .  A
C37          N38   1.357       .  A
C37          C75   1.461       .  S
C39          N40   1.358       .  A
C39          N44   1.358       .  A
C39         C176   1.435       .  S
N40          C41   1.357   1_565  A
C41          N42   1.357       .  A
N42          C43   1.357   1_545  A
C43          N44   1.357       .  A
C43          C93   1.461       .  S
O45         Cu53   2.009       .  S
O45          C55   1.276       .  A
O46         Cu53   2.009       .  S
O46          C56   1.276       .  A
O47         Cu53   2.009       .  S
O47          C57   1.276       .  A
O48         Cu53   2.009       .  S
O48          C58   1.276       .  A
O49         Cu54   2.009       .  S
O49          C58   1.276       .  A
O50         Cu54   2.009       .  S
O50          C57   1.276       .  A
O51         Cu54   2.009       .  S
O51          C56   1.276       .  A
O52         Cu54   2.009       .  S
O52          C55   1.276       .  A
Cu53        Cu54   2.380       .  S
C55         C173   1.434       .  S
C56         C175   1.434       .  S
C57         C171   1.434       .  S
C58         C169   1.434       .  S
C59          N60   1.358       .  A
C59          N64   1.358       .  A
C59         C170   1.435       .  S
N60          C61   1.357   1_565  A
C61          N62   1.357       .  A
N62          C63   1.357   1_545  A
C63          N64   1.357       .  A
C63         C105   1.461       .  S
C65          N66   1.358       .  A
C65          N70   1.358       .  A
C65         C172   1.435       .  S
N66          C67   1.357       .  A
C67          N68   1.357       .  A
N68          C69   1.357       .  A
C69          N70   1.357       .  A
C69         C101   1.461       .  S
C71          N72   1.358       .  A
C71          N76   1.358       .  A
C71         C174   1.435       .  S
N72          C73   1.357       .  A
C73          N74   1.357       .  A
C73         C111   1.461       .  S
N74          C75   1.357       .  A
C75          N76   1.357       .  A
O77         Cu85   2.009   1_655  S
O77          C87   1.276       .  A
O78         Cu85   2.009       .  S
O78          C88   1.276       .  A
O79         Cu85   2.009   1_655  S
O79          C89   1.276       .  A
O80         Cu85   2.009       .  S
O80          C90   1.276       .  A
O81         Cu86   2.009       .  S
O81          C90   1.276       .  A
O82         Cu86   2.009   1_655  S
O82          C89   1.276       .  A
O83         Cu86   2.009       .  S
O83          C88   1.276       .  A
O84         Cu86   2.009   1_655  S
O84          C87   1.276       .  A
Cu85        Cu86   2.380       .  S
C87         C163   1.434       .  S
C88         C165   1.434       .  S
C89         C167   1.434       .  S
C90         C162   1.434       .  S
C91          N92   1.358       .  A
C91          N96   1.358       .  A
C91         C161   1.435       .  S
N92          C93   1.357       .  A
C93          N94   1.357   1_565  A
N94          C95   1.357       .  A
C95          N96   1.357   1_545  A
C95         C321   1.461   1_554  S
C97          N98   1.358       .  A
C97         N102   1.358       .  A
C97         C166   1.435       .  S
N98          C99   1.357       .  A
C99         N100   1.357       .  A
C99         C315   1.461   1_554  S
N100        C101   1.357       .  A
C101        N102   1.357       .  A
C103        N104   1.358       .  A
C103        N108   1.358       .  A
C103        C164   1.435       .  S
N104        C105   1.357       .  A
C105        N106   1.357   1_565  A
N106        C107   1.357       .  A
C107        N108   1.357   1_545  A
C107        C329   1.461   1_554  S
C109        N110   1.358       .  A
C109        N114   1.358       .  A
C109        C168   1.435       .  S
N110        C111   1.357       .  A
C111        N112   1.357       .  A
N112        C113   1.357       .  A
C113        N114   1.357       .  A
C113        C335   1.461   1_554  S
O115       Cu123   2.009       .  S
O115        C125   1.276       .  A
O116       Cu123   2.009   1_655  S
O116        C126   1.276       .  A
O117       Cu123   2.009       .  S
O117        C127   1.276       .  A
O118       Cu123   2.009   1_655  S
O118        C128   1.276       .  A
O119       Cu124   2.009   1_655  S
O119        C128   1.276       .  A
O120       Cu124   2.009       .  S
O120        C127   1.276       .  A
O121       Cu124   2.009   1_655  S
O121        C126   1.276       .  A
O122       Cu124   2.009       .  S
O122        C125   1.276       .  A
Cu123      Cu124   2.380       .  S
C125        C156   1.434       .  S
C126        C160   1.434       .  S
C127        C154   1.434       .  S
C128        C158   1.434       .  S
C129        N130   1.358       .  A
C129        N134   1.358       .  A
C129        C153   1.435       .  S
N130        C131   1.357       .  A
C131        N132   1.357       .  A
C131        C283   1.461       .  S
N132        C133   1.357       .  A
C133        N134   1.357       .  A
C135        N136   1.358       .  A
C135        N140   1.358       .  A
C135        C155   1.435       .  S
N136        C137   1.357       .  A
C137        N138   1.357       .  A
C137        C279   1.461       .  S
N138        C139   1.357       .  A
C139        N140   1.357       .  A
C141        N142   1.358       .  A
C141        N146   1.358       .  A
C141        C157   1.435       .  S
N142        C143   1.357       .  A
C143        N144   1.357       .  A
N144        C145   1.357       .  A
C145        N146   1.357       .  A
C145        C291   1.461       .  S
C147        N148   1.358       .  A
C147        N152   1.358       .  A
C147        C159   1.435       .  S
N148        C149   1.357       .  A
C149        N150   1.357       .  A
N150        C151   1.357       .  A
C151        N152   1.357       .  A
C151        C297   1.461       .  S
C153        C154   1.205       .  T
C155        C156   1.205       .  T
C157        C158   1.205       .  T
C159        C160   1.205       .  T
C161        C162   1.205       .  T
C163        C164   1.205       .  T
C165        C166   1.205       .  T
C167        C168   1.205       .  T
C169        C170   1.205       .  T
C171        C172   1.205       .  T
C173        C174   1.205       .  T
C175        C176   1.205       .  T
C177        C178   1.205       .  T
C179        C180   1.205       .  T
C181        C182   1.205       .  T
C183        C184   1.205       .  T
C185        N186   1.358       .  A
C185        N190   1.358       .  A
C185        C367   1.435       .  S
N186        C187   1.357       .  A
C187        N188   1.357       .  A
C187        C225   1.461       .  S
N188        C189   1.357       .  A
C189        N190   1.357       .  A
C189        C323   1.461       .  S
O191       Cu199   2.009       .  S
O191        C201   1.276       .  A
O192       Cu199   2.009       .  S
O192        C202   1.276       .  A
O193       Cu199   2.009       .  S
O193        C203   1.276       .  A
O194       Cu199   2.009       .  S
O194        C204   1.276       .  A
O195       Cu200   2.009       .  S
O195        C204   1.276       .  A
O196       Cu200   2.009       .  S
O196        C203   1.276       .  A
O197       Cu200   2.009       .  S
O197        C202   1.276       .  A
O198       Cu200   2.009       .  S
O198        C201   1.276       .  A
Cu199      Cu200   2.380       .  S
C201        C366   1.434       .  S
C202        C368   1.434       .  S
C203        C361   1.434       .  S
C204        C363   1.434       .  S
C205        N206   1.358       .  A
C205        N210   1.358       .  A
C205        C364   1.435       .  S
N206        C207   1.357       .  A
C207        N208   1.357       .  A
C207        C245   1.461       .  S
N208        C209   1.357       .  A
C209        N210   1.357       .  A
C209        C327   1.461       .  S
C211        N212   1.358       .  A
C211        N216   1.358       .  A
C211        C362   1.435       .  S
N212        C213   1.357       .  A
C213        N214   1.357       .  A
C213        C317   1.461       .  S
N214        C215   1.357       .  A
C215        N216   1.357       .  A
C215        C251   1.461       .  S
C217        N218   1.358       .  A
C217        N222   1.358       .  A
C217        C365   1.435       .  S
N218        C219   1.357       .  A
C219        N220   1.357       .  A
C219        C333   1.461       .  S
N220        C221   1.357       .  A
C221        N222   1.357       .  A
C221        C259   1.461       .  S
C223        N224   1.358       .  A
C223        N228   1.358       .  A
C223        C360   1.435       .  S
N224        C225   1.357   1_565  A
C225        N226   1.357       .  A
N226        C227   1.357   1_545  A
C227        N228   1.357       .  A
C227        C277   1.461       .  S
O229       Cu237   2.009       .  S
O229        C239   1.276       .  A
O230       Cu237   2.009       .  S
O230        C240   1.276       .  A
O231       Cu237   2.009       .  S
O231        C241   1.276       .  A
O232       Cu237   2.009       .  S
O232        C242   1.276       .  A
O233       Cu238   2.009       .  S
O233        C242   1.276       .  A
O234       Cu238   2.009       .  S
O234        C241   1.276       .  A
O235       Cu238   2.009       .  S
O235        C240   1.276       .  A
O236       Cu238   2.009       .  S
O236        C239   1.276       .  A
Cu237      Cu238   2.380       .  S
C239        C357   1.434       .  S
C240        C359   1.434       .  S
C241        C355   1.434       .  S
C242        C353   1.434       .  S
C243        N244   1.358       .  A
C243        N248   1.358       .  A
C243        C354   1.435       .  S
N244        C245   1.357   1_565  A
C245        N246   1.357       .  A
N246        C247   1.357   1_545  A
C247        N248   1.357       .  A
C247        C289   1.461       .  S
C249        N250   1.358       .  A
C249        N254   1.358       .  A
C249        C356   1.435       .  S
N250        C251   1.357       .  A
C251        N252   1.357       .  A
N252        C253   1.357       .  A
C253        N254   1.357       .  A
C253        C285   1.461       .  S
C255        N256   1.358       .  A
C255        N260   1.358       .  A
C255        C358   1.435       .  S
N256        C257   1.357       .  A
C257        N258   1.357       .  A
C257        C295   1.461       .  S
N258        C259   1.357       .  A
C259        N260   1.357       .  A
O261       Cu269   2.009   1_655  S
O261        C271   1.276       .  A
O262       Cu269   2.009       .  S
O262        C272   1.276       .  A
O263       Cu269   2.009   1_655  S
O263        C273   1.276       .  A
O264       Cu269   2.009       .  S
O264        C274   1.276       .  A
O265       Cu270   2.009       .  S
O265        C274   1.276       .  A
O266       Cu270   2.009   1_655  S
O266        C273   1.276       .  A
O267       Cu270   2.009       .  S
O267        C272   1.276       .  A
O268       Cu270   2.009   1_655  S
O268        C271   1.276       .  A
Cu269      Cu270   2.380       .  S
C271        C347   1.434       .  S
C272        C349   1.434       .  S
C273        C351   1.434       .  S
C274        C346   1.434       .  S
C275        N276   1.358       .  A
C275        N280   1.358       .  A
C275        C345   1.435       .  S
N276        C277   1.357       .  A
C277        N278   1.357   1_565  A
N278        C279   1.357       .  A
C279        N280   1.357   1_545  A
C281        N282   1.358       .  A
C281        N286   1.358       .  A
C281        C350   1.435       .  S
N282        C283   1.357       .  A
C283        N284   1.357       .  A
N284        C285   1.357       .  A
C285        N286   1.357       .  A
C287        N288   1.358       .  A
C287        N292   1.358       .  A
C287        C348   1.435       .  S
N288        C289   1.357       .  A
C289        N290   1.357   1_565  A
N290        C291   1.357       .  A
C291        N292   1.357   1_545  A
C293        N294   1.358       .  A
C293        N298   1.358       .  A
C293        C352   1.435       .  S
N294        C295   1.357       .  A
C295        N296   1.357       .  A
N296        C297   1.357       .  A
C297        N298   1.357       .  A
O299       Cu307   2.009       .  S
O299        C309   1.276       .  A
O300       Cu307   2.009   1_655  S
O300        C310   1.276       .  A
O301       Cu307   2.009       .  S
O301        C311   1.276       .  A
O302       Cu307   2.009   1_655  S
O302        C312   1.276       .  A
O303       Cu308   2.009   1_655  S
O303        C312   1.276       .  A
O304       Cu308   2.009       .  S
O304        C311   1.276       .  A
O305       Cu308   2.009   1_655  S
O305        C310   1.276       .  A
O306       Cu308   2.009       .  S
O306        C309   1.276       .  A
Cu307      Cu308   2.380       .  S
C309        C340   1.434       .  S
C310        C344   1.434       .  S
C311        C338   1.434       .  S
C312        C342   1.434       .  S
C313        N314   1.358       .  A
C313        N318   1.358       .  A
C313        C337   1.435       .  S
N314        C315   1.357       .  A
C315        N316   1.357       .  A
N316        C317   1.357       .  A
C317        N318   1.357       .  A
C319        N320   1.358       .  A
C319        N324   1.358       .  A
C319        C339   1.435       .  S
N320        C321   1.357       .  A
C321        N322   1.357       .  A
N322        C323   1.357       .  A
C323        N324   1.357       .  A
C325        N326   1.358       .  A
C325        N330   1.358       .  A
C325        C341   1.435       .  S
N326        C327   1.357       .  A
C327        N328   1.357       .  A
N328        C329   1.357       .  A
C329        N330   1.357       .  A
C331        N332   1.358       .  A
C331        N336   1.358       .  A
C331        C343   1.435       .  S
N332        C333   1.357       .  A
C333        N334   1.357       .  A
N334        C335   1.357       .  A
C335        N336   1.357       .  A
C337        C338   1.205       .  T
C339        C340   1.205       .  T
C341        C342   1.205       .  T
C343        C344   1.205       .  T
C345        C346   1.205       .  T
C347        C348   1.205       .  T
C349        C350   1.205       .  T
C351        C352   1.205       .  T
C353        C354   1.205       .  T
C355        C356   1.205       .  T
C357        C358   1.205       .  T
C359        C360   1.205       .  T
C361        C362   1.205       .  T
C363        C364   1.205       .  T
C365        C366   1.205       .  T
C367        C368   1.205       .  T
