geometry optimzed in LAMMPS
_audit_creation_date              2020-11-30 
_audit_creation_method            'lammps2cif' 
_symmetry_space_group_name_H-M    'P1' 
_symmetry_Int_Tables_number       1 
_symmetry_cell_setting            triclinic 
loop_ 
_symmetry_equiv_pos_as_xyz 
  x,y,z 
_cell_length_a                    23.28122629 
_cell_length_b                    86.72038386668552 
_cell_length_c                    24.124501580545374 
_cell_angle_alpha                 88.72748940521888 
_cell_angle_beta                  94.52461821839448 
_cell_angle_gamma                 89.9679274270311 
loop_ 
_atom_site_label 
_atom_site_type_symbol 
_atom_site_fract_x 
_atom_site_fract_y 
_atom_site_fract_z 
_atom_site_charge 
C1          C  0.23281169  0.10815842  0.97874561     0.05800
C2          C  0.23203016  0.09980116  0.02957957    -0.10300
C3          C  0.23083566  0.08359660  0.03061362     0.03300
C4          C  0.23083223  0.07514623  0.47956605    -0.08800
C5          C  0.23322797  0.08295573  0.42792005     0.05800
C6          C  0.23637837  0.09910927  0.42622535    -0.08300
H7          H  0.23115352  0.10576307  0.06842892     0.11400
H8          H  0.22862241  0.06266188  0.48119477     0.09000
H9          H  0.23832095  0.10510028  0.38647726     0.08800
C10         C  0.24664081  0.96951739  0.23976194     0.82900
N11         N  0.24771575  0.96141577  0.19216320    -0.75400
C12         C  0.24855624  0.94574499  0.19373863     0.85400
N13         N  0.24813356  0.93802885  0.24364561    -0.75300
C14         C  0.24709640  0.94603160  0.29164254     0.85500
N15         N  0.24636387  0.96169903  0.28932811    -0.77000
C16         C  0.23453318  0.03663771  0.23226975     0.82900
N17         N  0.23272921  0.04466425  0.18296131    -0.75400
C18         C  0.23046076  0.06034073  0.18158709     0.85400
N19         N  0.23001580  0.06810221  0.23011545    -0.75300
C20         C  0.23168369  0.06017671  0.27967395     0.85500
N21         N  0.23399799  0.04452825  0.28039221    -0.77000
C22         C  0.24452188  0.89894925  0.99485736     0.05800
C23         C  0.24465172  0.90709255  0.04470449    -0.10300
C24         C  0.24781563  0.92324351  0.04484187     0.03300
C25         C  0.25041447  0.93148317  0.99411305    -0.08800
C26         C  0.24451853  0.92393742  0.44474998     0.05800
C27         C  0.24488818  0.90773932  0.44717121    -0.08300
H28         H  0.24286170  0.90080159  0.08388566     0.11400
H29         H  0.25290172  0.94396527  0.99395211     0.09000
H30         H  0.24605635  0.90158073  0.40876515     0.08800
C31         C  0.25600871  0.85518989  0.96303566     0.82900
N32         N  0.24196777  0.84776957  0.01071497    -0.75400
C33         C  0.24413988  0.83207461  0.01449944     0.85400
N34         N  0.26016929  0.82391040  0.97130489    -0.75300
C35         C  0.22101143  0.83170087  0.42459494     0.85500
N36         N  0.21718603  0.84733309  0.42149314    -0.77000
O37         O  0.11700940  0.76182803  0.26095605    -0.55100
C38         C  0.28686375  0.75617629  0.22148549     0.77500
O39         O  0.15958223  0.79660555  0.14365630    -0.56300
C40         C  0.08861402  0.75841094  0.21604740     0.77500
C41         C  0.19075699  0.80027189  0.30482058     0.79900
Cd42       Cd  0.19115009  0.77784176  0.21894231     1.37500
O43         O  0.25710174  0.75969175  0.17673417    -0.55100
O44         O  0.15102508  0.79987599  0.26617482    -0.53900
C45         C  0.20966856  0.80140976  0.13600445     0.79800
O46         O  0.22832821  0.78970154  0.30643346    -0.56300
O47         O  0.27177232  0.76229145  0.26526792    -0.54700
O48         O  0.10711060  0.76391217  0.17179339    -0.54700
O49         O  0.25118992  0.79468170  0.16346575    -0.53900
C50         C  0.50407825  0.64896217  0.98228098     0.82900
N51         N  0.48314923  0.65627749  0.02609645    -0.75400
C52         C  0.48034240  0.67196589  0.02575054     0.85400
N53         N  0.49883006  0.68023431  0.98262886    -0.75300
C54         C  0.47980907  0.67271964  0.43821428     0.85500
N55         N  0.47995141  0.65704378  0.43810250    -0.77000
O56         O  0.00771044  0.74495634  0.17149641    -0.55100
C57         C  0.33719597  0.74580067  0.22233087     0.77500
O58         O  0.48923810  0.70581978  0.17666902    -0.56300
C59         C  0.03723245  0.74843178  0.21586488     0.77500
C60         C  0.44218441  0.70361554  0.31249624     0.79900
Cd61       Cd  0.43916373  0.72618676  0.22272450     1.37500
O62         O  0.36720550  0.74230039  0.26687830    -0.55100
O63         O  0.97827164  0.71543273  0.30528231    -0.53900
C64         C  0.94708723  0.70385814  0.13879064     0.79800
O65         O  0.89556541  0.70701741  0.27271054    -0.56300
O66         O  0.35345037  0.74014536  0.17828894    -0.54700
O67         O  0.02059066  0.74275913  0.26061372    -0.54700
O68         O  0.40295461  0.71082541  0.14176028    -0.53900
O69         O  0.15351666  0.26455297  0.21893120    -0.55100
C70         C  0.48191230  0.25513832  0.26525784     0.77500
O71         O  0.61984390  0.29676939  0.32889458    -0.56300
C72         C  0.17775867  0.25850888  0.26296708     0.77500
C73         C  0.56375213  0.29939844  0.18205232     0.79900
Cd74       Cd  0.07373188  0.27690903  0.26459718     1.37500
O75         O  0.50421724  0.25941011  0.22120496    -0.55100
O76         O  0.10636906  0.29909531  0.20821148    -0.53900
C77         C  0.07022344  0.29859333  0.35228924     0.79800
O78         O  0.02155684  0.29038086  0.18474054    -0.56300
O79         O  0.50589408  0.25991213  0.31054613    -0.54700
O80         O  0.15438401  0.26096601  0.30753043    -0.54700
O81         O  0.53658718  0.28801236  0.34663920    -0.53900
C82         C  0.99724951  0.35334195  0.99786213     0.82900
N83         N  0.01872018  0.34601902  0.04587960    -0.75400
C84         C  0.01603602  0.33034568  0.05061475     0.85400
N85         N  0.99178166  0.32210097  0.00805818    -0.75300
C86         C  0.03993920  0.32931336  0.46981686     0.85500
N87         N  0.04210519  0.34493051  0.46536374    -0.77000
O88         O  0.40524317  0.24217137  0.30762134    -0.55100
C89         C  0.22936301  0.24873498  0.26234091     0.77500
O90         O  0.35455535  0.20443689  0.21209318    -0.56300
C91         C  0.42985956  0.24547626  0.26396765     0.77500
C92         C  0.30625453  0.20369056  0.34304762     0.79900
Cd93       Cd  0.32472231  0.22729413  0.26085986     1.37500
O94         O  0.25408248  0.24299732  0.30667042    -0.55100
O95         O  0.35602120  0.20930900  0.33927719    -0.53900
C96         C  0.31629039  0.20593687  0.17225204     0.79800
O97         O  0.26575423  0.20935531  0.31112481    -0.56300
O98         O  0.25038955  0.24527579  0.21743121    -0.54700
O99         O  0.40656118  0.24033050  0.21902958    -0.54700
O100        O  0.28471884  0.21782451  0.17110346    -0.53900
C101        C  0.24897065  0.15160177  0.01242174     0.82900
N102        N  0.27130263  0.16008150  0.05580877    -0.75400
C103        C  0.27169258  0.17571976  0.05146838     0.85400
N104        N  0.24942789  0.18288257  0.00439457    -0.75300
C105        C  0.25413101  0.17418564  0.46019252     0.85500
N106        N  0.25029030  0.15852738  0.46197243    -0.77000
C107        C  0.01181900  0.39725917  0.02794484     0.05800
C108        C  0.01119942  0.40564172  0.07723683    -0.10300
C109        C  0.00808731  0.42181186  0.07595022     0.03300
C110        C  0.00615907  0.42980811  0.02432616    -0.08800
C111        C  0.01125963  0.42176031  0.47615133     0.05800
C112        C  0.01027199  0.40555346  0.47954112    -0.08300
H113        H  0.01262679  0.39951961  0.11700988     0.11400
H114        H  0.00389040  0.44229700  0.02301949     0.09000
H115        H  0.00882154  0.39917490  0.44141655     0.08800
C116        C  0.51991114  0.53452948  0.28080903     0.82900
N117        N  0.51930298  0.54264995  0.23178811    -0.75400
C118        C  0.51799710  0.55832252  0.23072258     0.85400
N119        N  0.51719344  0.56601943  0.27937368    -0.75300
C120        C  0.51774873  0.55802512  0.32877177     0.85500
N121        N  0.51913124  0.54234622  0.32913931    -0.77000
C122        C  0.00727925  0.46798984  0.27290094     0.82900
N123        N  0.00648134  0.46014437  0.22449507    -0.75400
C124        C  0.00675411  0.44445675  0.22482127     0.85400
N125        N  0.00789554  0.43647538  0.27431356    -0.75300
C126        C  0.00864923  0.44419119  0.32307448     0.85500
N127        N  0.00836889  0.45987568  0.32199085    -0.77000
C128        C  0.50474716  0.60533123  0.02439545     0.05800
C129        C  0.50791127  0.59720692  0.07575093    -0.10300
C130        C  0.51386781  0.58108872  0.07845129     0.03300
C131        C  0.51669639  0.57291622  0.02889515    -0.08800
C132        C  0.51722403  0.58072302  0.47744882     0.05800
C133        C  0.51745533  0.59693595  0.47636621    -0.08300
H134        H  0.50578074  0.60346982  0.11394543     0.11400
H135        H  0.52118703  0.56046948  0.03063592     0.09000
H136        H  0.51835829  0.60293756  0.43664667     0.08800
C137        C  0.51700639  0.57249558  0.42533657    -0.10600
C138        C  0.51714747  0.56604953  0.38103635    -0.12100
C139        C  0.51726956  0.56662070  0.17767848    -0.10600
C140        C  0.51619073  0.57307150  0.13231742    -0.12900
C141        C  0.00909518  0.50986467  0.22103706    -0.10600
C142        C  0.01159731  0.51809885  0.27083926     0.11500
C143        C  0.52454582  0.50884642  0.33212099    -0.10600
C144        C  0.52556412  0.49268480  0.33286414    -0.10600
C145        C  0.00795427  0.48523868  0.27222541     0.11500
C146        C  0.00726138  0.49369942  0.22171647    -0.10600
H147        H  0.00864350  0.51590249  0.18124061     0.15500
H148        H  0.52622292  0.51469896  0.37139057     0.15500
H149        H  0.52793364  0.48662138  0.37269704     0.15500
H150        H  0.00555723  0.48783958  0.18245967     0.15500
C151        C  0.01093011  0.42954588  0.42186109    -0.10600
C152        C  0.01003541  0.43590600  0.37628945    -0.12100
C153        C  0.00705774  0.43001406  0.12806155    -0.10600
C154        C  0.00663379  0.43642175  0.17245021    -0.12100
C155        C  0.29516135  0.19153334  0.38206848    -0.10600
C156        C  0.27933165  0.18234096  0.41582356    -0.12100
C157        C  0.30725941  0.19435070  0.13123728    -0.10600
C158        C  0.29382946  0.18500021  0.09650073    -0.12100
C159        C  0.99837296  0.37043929  0.99098478    -0.13700
C160        C  0.01471033  0.38000119  0.03266874    -0.28900
H161        H  0.04172982  0.37536568  0.46167173     0.15300
H162        H  0.52899794  0.37371601  0.08378566     0.15900
C163        C  0.05872488  0.31970861  0.42723689    -0.10600
C164        C  0.06756589  0.31020417  0.39328757    -0.12100
C165        C  0.54096662  0.32101908  0.10508666    -0.10600
C166        C  0.55459710  0.31162510  0.14129782    -0.12100
C167        C  0.49788337  0.62250000  0.02423082    -0.13700
C168        C  0.50873461  0.63190804  0.98102037    -0.28900
H169        H  0.48544936  0.62764361  0.06218057     0.15300
H170        H  0.97666695  0.62854699  0.43414358     0.15900
C171        C  0.45962090  0.68182541  0.39012437    -0.10600
C172        C  0.44830607  0.69142350  0.35390259    -0.12100
C173        C  0.95182924  0.69117746  0.10208199    -0.10600
C174        C  0.96040750  0.68149837  0.06853021    -0.12100
C175        C  0.19435766  0.81245929  0.34414835    -0.10600
C176        C  0.20311658  0.82225272  0.37843483    -0.12100
C177        C  0.22926197  0.82358092  0.06304972    -0.10600
C178        C  0.21921765  0.81393138  0.09777661    -0.12100
C179        C  0.24207430  0.88168545  0.99823376    -0.13700
C180        C  0.25523743  0.87229449  0.95721077    -0.28900
H181        H  0.23134496  0.87646190  0.03744849     0.15300
H182        H  0.21437531  0.87777367  0.42154802     0.15900
C183        C  0.24599926  0.93808109  0.34523329    -0.10600
C184        C  0.24504449  0.93188603  0.39090056    -0.12100
C185        C  0.24886789  0.93749642  0.14201498    -0.10600
C186        C  0.24856903  0.93117817  0.09749226    -0.12100
C187        C  0.24588073  0.99512571  0.28685983    -0.10600
C188        C  0.24447577  0.98670780  0.23760360     0.11500
C189        C  0.24008374  0.99490038  0.18639220    -0.10600
C190        C  0.23678585  0.01105224  0.18454640    -0.10600
C191        C  0.23789739  0.01945501  0.23386463     0.11500
C192        C  0.24261301  0.01125061  0.28501874    -0.10600
H193        H  0.24938443  0.98926485  0.32708483     0.15500
H194        H  0.23881141  0.98884090  0.14755763     0.15500
H195        H  0.23321691  0.01693931  0.14436996     0.15500
H196        H  0.24380613  0.01727773  0.32391471     0.15500
C197        C  0.23239523  0.07461723  0.37616134    -0.10600
C198        C  0.23184440  0.06821504  0.33181517    -0.12100
C199        C  0.22973115  0.06862700  0.12855014    -0.10600
C200        C  0.22995006  0.07527051  0.08364870    -0.12100
C201        C  0.24930336  0.13454034  0.01786150    -0.13700
C202        C  0.23250702  0.12536361  0.97525261    -0.28900
H203        H  0.26530538  0.12954333  0.05770781     0.15300
H204        H  0.25743554  0.12978388  0.43398007     0.15900
C205        C  0.23634940  0.10763046  0.47512463     0.05800
C206        C  0.23448772  0.09965567  0.52659962    -0.10300
C207        C  0.23164381  0.08348436  0.52914110     0.03300
C208        C  0.23028389  0.07564183  0.98024958    -0.08800
C209        C  0.23069895  0.08384379  0.92921238     0.05800
C210        C  0.23179181  0.10000509  0.92893016    -0.08300
H211        H  0.23645330  0.10590100  0.56504791     0.11400
H212        H  0.22937242  0.06314327  0.98076595     0.09000
H213        H  0.23203053  0.10628645  0.88956924     0.08800
C214        C  0.25435022  0.97074705  0.74221950     0.82900
N215        N  0.25337111  0.96279390  0.69410938    -0.75400
C216        C  0.25292633  0.94712837  0.69487022     0.85400
N217        N  0.25334237  0.93925604  0.74448109    -0.75300
C218        C  0.25443240  0.94706233  0.79303290     0.85500
N219        N  0.25482753  0.96275801  0.79158303    -0.77000
C220        C  0.23910462  0.03785678  0.73421213     0.82900
N221        N  0.23660957  0.04572521  0.68458051    -0.75400
C222        C  0.23173786  0.06135035  0.68230901     0.85400
N223        N  0.22940790  0.06925283  0.73038047    -0.75300
C224        C  0.23178041  0.06147944  0.78032318     0.85500
N225        N  0.23664591  0.04586434  0.78186138    -0.77000
C226        C  0.24580345  0.89964113  0.49866759     0.05800
C227        C  0.24697538  0.90809799  0.54787272    -0.10300
C228        C  0.24653184  0.92428808  0.54628366     0.03300
C229        C  0.24509494  0.93219748  0.49449295    -0.08800
C230        C  0.24965808  0.92360840  0.94357315     0.05800
C231        C  0.24647804  0.90740098  0.94420413    -0.08300
H232        H  0.24840672  0.90203392  0.58776074     0.11400
H233        H  0.24510452  0.94469847  0.49294332     0.09000
H234        H  0.24493285  0.90156020  0.90498409     0.08800
C235        C  0.23640331  0.85590732  0.46588918     0.82900
N236        N  0.25984284  0.84865383  0.51324528    -0.75400
C237        C  0.26382919  0.83298711  0.51559282     0.85400
N238        N  0.24435528  0.82466716  0.47143032    -0.75300
C239        C  0.27410259  0.83112191  0.92415463     0.85500
N240        N  0.27191445  0.84675272  0.91974036    -0.77000
O241        O  0.24244493  0.76116494  0.76690743    -0.55100
C242        C  0.41396931  0.75817231  0.72468610     0.77500
O243        O  0.27224382  0.79086564  0.63560599    -0.56300
C244        C  0.21448147  0.75713266  0.72244643     0.77500
C245        C  0.30303206  0.80017043  0.80656653     0.79900
Cd246      Cd  0.31261279  0.77794059  0.72174051     1.37500
O247        O  0.38979769  0.76334304  0.67919821    -0.55100
O248        O  0.25927763  0.79499075  0.77880716    -0.53900
C249        C  0.30742609  0.80198005  0.63749137     0.79800
O250        O  0.35134270  0.79437322  0.79817428    -0.56300
O251        O  0.39167612  0.76207295  0.76841452    -0.54700
O252        O  0.23244594  0.76231614  0.67748588    -0.54700
O253        O  0.34811083  0.80140161  0.67527505    -0.53900
C254        C  0.50085195  0.64882830  0.48424828     0.82900
N255        N  0.52182762  0.65649754  0.53040065    -0.75400
C256        C  0.52184331  0.67220414  0.52986175     0.85400
N257        N  0.50081624  0.68016007  0.48394707    -0.75300
C258        C  0.51979198  0.67312074  0.93938435     0.85500
N259        N  0.52227877  0.65748501  0.93888165    -0.77000
O260        O  0.13469948  0.74322384  0.67887127    -0.55100
C261        C  0.46479825  0.74797973  0.72685971     0.77500
O262        O  0.60382084  0.70594291  0.67867875    -0.56300
C263        C  0.16317017  0.74716445  0.72313987     0.77500
C264        C  0.55404653  0.70434979  0.82003305     0.79900
Cd265      Cd  0.56182795  0.72678656  0.73188263     1.37500
O266        O  0.48896687  0.74301072  0.77264734    -0.55100
O267        O  0.09330104  0.71272034  0.80924290    -0.53900
C268        C  0.05492754  0.70437486  0.64343808     0.79800
O269        O  0.00481027  0.70970629  0.77735550    -0.56300
O270        O  0.48617673  0.74356334  0.68321276    -0.54700
O271        O  0.14465348  0.74226678  0.76817394    -0.54700
O272        O  0.51536189  0.71199356  0.65517560    -0.53900
O273        O  0.98819437  0.26070458  0.70423412    -0.55100
C274        C  0.31974651  0.25866817  0.75489329     0.77500
O275        O  0.45336938  0.28637428  0.85257723    -0.56300
C276        C  0.01832476  0.25685072  0.74830978     0.77500
C277        C  0.44686097  0.30090774  0.67766085     0.79900
Cd278      Cd  0.92132325  0.27779146  0.75031796     1.37500
O279        O  0.34012439  0.26390534  0.71119104    -0.55100
O280        O  0.98061374  0.29700884  0.70638742    -0.53900
C281        C  0.92430401  0.29905237  0.83968708     0.79800
O282        O  0.89393431  0.29493683  0.66853294    -0.56300
O283        O  0.34676156  0.26212991  0.80043217    -0.54700
O284        O  0.00256320  0.26213471  0.79313021    -0.54700
O285        O  0.39165083  0.30066935  0.80362241    -0.53900
C286        C  0.02106342  0.35377573  0.50514440     0.82900
N287        N  0.99721532  0.34680169  0.54918164    -0.75400
C288        C  0.99484518  0.33112766  0.55294386     0.85400
N289        N  0.01619200  0.32252213  0.51334035    -0.75300
C290        C  0.97028547  0.32922978  0.96059041     0.85500
N291        N  0.97328684  0.34482733  0.95522706    -0.77000
O292        O  0.24952622  0.24291916  0.79648154    -0.55100
C293        C  0.06958832  0.24696654  0.74770462     0.77500
O294        O  0.21084473  0.21629500  0.66684050    -0.56300
C295        C  0.26824463  0.24875927  0.75283160     0.77500
C296        C  0.18543509  0.20421409  0.83376409     0.79900
Cd297      Cd  0.17127273  0.22763428  0.74798957     1.37500
O298        O  0.10003649  0.24349104  0.79194266    -0.55100
O299        O  0.22796820  0.21015412  0.81194252    -0.53900
C300        C  0.17302135  0.20593022  0.66005935     0.79800
O301        O  0.13612609  0.20953824  0.81822728    -0.56300
O302        O  0.08605912  0.24167653  0.70311757    -0.54700
O303        O  0.24111385  0.24535764  0.70720318    -0.54700
O304        O  0.13198329  0.20613179  0.69123339    -0.53900
C305        C  0.22524109  0.15131282  0.50478260     0.82900
N306        N  0.20425150  0.15989607  0.54529104    -0.75400
C307        C  0.20793602  0.17551180  0.54288512     0.85400
N308        N  0.23294201  0.18255362  0.50054767    -0.75300
C309        C  0.22691194  0.17460768  0.96123358     0.85500
N310        N  0.22675022  0.15894638  0.96487202    -0.77000
C311        C  0.00931491  0.39773206  0.53148273     0.05800
C312        C  0.00871699  0.40644434  0.57991786    -0.10300
C313        C  0.00990895  0.42261182  0.57739510     0.03300
C314        C  0.01132105  0.43025960  0.52534049    -0.08800
C315        C  0.00751460  0.42169901  0.97440040     0.05800
C316        C  0.01040190  0.40546936  0.97651186    -0.08300
H317        H  0.00740283  0.40059071  0.61999358     0.11400
H318        H  0.01191829  0.44275454  0.52306659     0.09000
H319        H  0.01243857  0.39938700  0.93803894     0.08800
C320        C  0.51438889  0.53439656  0.78151877     0.82900
N321        N  0.51576637  0.54240892  0.73242823    -0.75400
C322        C  0.51733893  0.55807657  0.73111915     0.85400
N323        N  0.51745195  0.56587648  0.77962845    -0.75300
C324        C  0.51609042  0.55798122  0.82907472     0.85500
N325        N  0.51457343  0.54230973  0.82967513    -0.77000
C326        C  0.00564864  0.46901350  0.77321254     0.82900
N327        N  0.00632017  0.46120422  0.72490361    -0.75400
C328        C  0.00674412  0.44553945  0.72513298     0.85400
N329        N  0.00647586  0.43752000  0.77440441    -0.75300
C330        C  0.00575211  0.44517648  0.82314740     0.85500
N331        N  0.00540348  0.46087683  0.82223055    -0.77000
C332        C  0.51793349  0.60526108  0.52607746     0.05800
C333        C  0.51920701  0.59700571  0.57710825    -0.10300
C334        C  0.51871407  0.58080737  0.57900360     0.03300
C335        C  0.51766024  0.57268904  0.52894658    -0.08800
C336        C  0.51310503  0.58081245  0.97704382     0.05800
C337        C  0.50687691  0.59692716  0.97509846    -0.08300
H338        H  0.52002838  0.60323384  0.61564453     0.11400
H339        H  0.51735870  0.56018719  0.53006773     0.09000
H340        H  0.50267266  0.60272458  0.93483268     0.08800
C341        C  0.51491107  0.57253828  0.92529267    -0.10600
C342        C  0.51576478  0.56608631  0.88111396    -0.12100
C343        C  0.51844002  0.56626514  0.67795595    -0.10600
C344        C  0.51885410  0.57269216  0.63262392    -0.12900
C345        C  0.00507696  0.51078543  0.72040831    -0.10600
C346        C  0.00695632  0.51906329  0.77003106     0.11500
C347        C  0.51387831  0.50874857  0.83304306    -0.10600
C348        C  0.51306342  0.49257818  0.83376857    -0.10600
C349        C  0.00572108  0.48624295  0.77224410     0.11500
C350        C  0.00445106  0.49462541  0.72149626    -0.10600
H351        H  0.00408842  0.51677971  0.68049197     0.15500
H352        H  0.51565089  0.51462029  0.87227924     0.15500
H353        H  0.51425358  0.48650356  0.87354064     0.15500
H354        H  0.00303362  0.48871028  0.68236161     0.15500
C355        C  0.00643345  0.42996131  0.92087543    -0.10600
C356        C  0.00591053  0.43673913  0.87604772    -0.12100
C357        C  0.00897837  0.43112163  0.62871798    -0.10600
C358        C  0.00792949  0.43757130  0.67288580    -0.12100
C359        C  0.19337932  0.19205817  0.87477308    -0.10600
C360        C  0.20551081  0.18282014  0.91180608    -0.12100
C361        C  0.17785553  0.19420910  0.61977983    -0.10600
C362        C  0.18825603  0.18483346  0.58586691    -0.12100
C363        C  0.02377596  0.37082015  0.49879428    -0.13700
C364        C  0.00659572  0.38054653  0.53706015    -0.28900
H365        H  0.98236343  0.37518580  0.95075170     0.15300
H366        H  0.49692475  0.37446456  0.58232805     0.15900
C367        C  0.94666126  0.31993516  0.91593851    -0.10600
C368        C  0.93252243  0.31063328  0.88107698    -0.12100
C369        C  0.47498943  0.32203209  0.60422016    -0.10600
C370        C  0.45950995  0.31296933  0.63866617    -0.12100
C371        C  0.51870619  0.62252808  0.52675979    -0.13700
C372        C  0.50044627  0.63169036  0.48288525    -0.28900
H373        H  0.53317059  0.62788867  0.56567906     0.15300
H374        H  0.01798843  0.62879682  0.93558558     0.15900
C375        C  0.53848361  0.68249811  0.89471375    -0.10600
C376        C  0.54885891  0.69221663  0.86054519    -0.12100
C377        C  0.04768423  0.69168454  0.60624644    -0.10600
C378        C  0.03541736  0.68197345  0.57228938    -0.12100
C379        C  0.29763871  0.81221119  0.84550896    -0.10600
C380        C  0.28907650  0.82183281  0.87913206    -0.12100
C381        C  0.28687460  0.82466129  0.56430539    -0.10600
C382        C  0.30002850  0.81486491  0.59923367    -0.12100
C383        C  0.24849313  0.88241918  0.50316313    -0.13700
C384        C  0.23220452  0.87297888  0.46110088    -0.28900
H385        H  0.26355896  0.87731804  0.54324081     0.15300
H386        H  0.26801952  0.87712595  0.91826195     0.15900
C387        C  0.25355789  0.93879044  0.84610763    -0.10600
C388        C  0.25200985  0.93204576  0.89077302    -0.12100
C389        C  0.25072305  0.93901890  0.64268733    -0.10600
C390        C  0.24862167  0.93257859  0.59829342    -0.12100
C391        C  0.25106753  0.99636426  0.78958614    -0.10600
C392        C  0.25274708  0.98796553  0.74049422     0.11500
C393        C  0.25132425  0.99620134  0.68943254    -0.10600
C394        C  0.24730330  0.01232926  0.68743154    -0.10600
C395        C  0.24464307  0.02070950  0.73643453     0.11500
C396        C  0.24703724  0.01250121  0.78758240    -0.10600
H397        H  0.25223380  0.99047128  0.82969729     0.15500
H398        H  0.25274123  0.99018668  0.65071353     0.15500
H399        H  0.24586093  0.01820965  0.64728161     0.15500
H400        H  0.24536392  0.01852479  0.82625566     0.15500
C401        C  0.23013533  0.07588086  0.87668859    -0.10600
C402        C  0.23032405  0.06962258  0.83211832    -0.12100
C403        C  0.23035636  0.06938973  0.62872277    -0.10600
C404        C  0.23042306  0.07561778  0.58304899    -0.12100
C405        C  0.22113803  0.13427832  0.50898095    -0.13700
C406        C  0.24009264  0.12479236  0.47083865    -0.28900
H407        H  0.20099250  0.12951547  0.54458544     0.15300
H408        H  0.21947286  0.13069311  0.93502523     0.15900
C409        C  0.73679569  0.10614214  0.98162996     0.05800
C410        C  0.74037012  0.09800666  0.03315664    -0.10300
C411        C  0.74261596  0.08180761  0.03534966     0.03300
C412        C  0.73415494  0.07398531  0.48492130    -0.08800
C413        C  0.73807437  0.08197140  0.43386344     0.05800
C414        C  0.74089715  0.09810239  0.43289341    -0.08300
H415        H  0.74010710  0.10413567  0.07172252     0.11400
H416        H  0.73231994  0.06149403  0.48597579     0.09000
H417        H  0.74412889  0.10421312  0.39354453     0.08800
C418        C  0.74166393  0.96877363  0.24679932     0.82900
N419        N  0.74519462  0.96094773  0.19897675    -0.75400
C420        C  0.74905403  0.94534771  0.19971304     0.85400
N421        N  0.74945170  0.93736349  0.24909480    -0.75300
C422        C  0.74590060  0.94506983  0.29742114     0.85500
N423        N  0.74205377  0.96072882  0.29598528    -0.77000
C424        C  0.73986803  0.03582886  0.23913471     0.82900
N425        N  0.74213794  0.04367714  0.18981292    -0.75400
C426        C  0.74394365  0.05934367  0.18797796     0.85400
N427        N  0.74346563  0.06728605  0.23613149    -0.75300
C428        C  0.74126838  0.05951130  0.28570668     0.85500
N429        N  0.73945085  0.04387250  0.28683691    -0.77000
C430        C  0.76649214  0.89897311  0.00406768     0.05800
C431        C  0.76427537  0.90735136  0.05300951    -0.10300
C432        C  0.75918086  0.92344924  0.05120571     0.03300
C433        C  0.75611884  0.93138852  0.99942911    -0.08800
C434        C  0.74469150  0.92204693  0.44878732     0.05800
C435        C  0.74187716  0.90585596  0.45044936    -0.08300
H436        H  0.76615827  0.90127712  0.09290717     0.11400
H437        H  0.75176929  0.94383845  0.99774232     0.09000
H438        H  0.74223667  0.89977104  0.41182031     0.08800
C439        C  0.78626915  0.85555889  0.97426173     0.82900
N440        N  0.76368088  0.84809639  0.01803163    -0.75400
C441        C  0.76212023  0.83240673  0.02012786     0.85400
N442        N  0.78291066  0.82427106  0.97901879    -0.75300
C443        C  0.69783313  0.83037768  0.42602032     0.85500
N444        N  0.69965156  0.84602164  0.42253650    -0.77000
O445        O  0.61714867  0.76101014  0.25847716    -0.55100
C446        C  0.78677983  0.75802892  0.21595569     0.77500
O447        O  0.66135245  0.79538809  0.13298863    -0.56300
C448        C  0.58660616  0.75782792  0.21457879     0.77500
C449        C  0.67684016  0.80011052  0.30148066     0.79900
Cd450      Cd  0.68687538  0.77821600  0.21539160     1.37500
O451        O  0.75410444  0.76055611  0.17220017    -0.55100
O452        O  0.64526608  0.80102796  0.25651985    -0.53900
C453        C  0.70990175  0.80204737  0.13510765     0.79800
O454        O  0.71030344  0.78860811  0.30837616    -0.56300
O455        O  0.77296809  0.76452190  0.25947362    -0.54700
O456        O  0.60167913  0.76404626  0.16996876    -0.54700
O457        O  0.74775529  0.79721323  0.17172014    -0.53900
C458        C  0.99868914  0.65038188  0.97590130     0.82900
N459        N  0.98020788  0.65754058  0.02121285    -0.75400
C460        C  0.97695336  0.67323045  0.02146106     0.85400
N461        N  0.99247741  0.68164161  0.97735524    -0.75300
C462        C  0.97062191  0.67467890  0.43342200     0.85500
N463        N  0.97157802  0.65904568  0.43146621    -0.77000
O464        O  0.50555641  0.74374060  0.17293612    -0.55100
C465        C  0.83813113  0.74805687  0.21639549     0.77500
O466        O  0.99076822  0.70896273  0.16686833    -0.56300
C467        C  0.53657312  0.74736747  0.21615904     0.77500
C468        C  0.93791431  0.70580330  0.30853523     0.79900
Cd469      Cd  0.93834488  0.72788691  0.21839946     1.37500
O470        O  0.86849987  0.74478786  0.26091750    -0.55100
O471        O  0.47826939  0.71449515  0.31182844    -0.53900
C472        C  0.44775047  0.70255038  0.14208529     0.79800
O473        O  0.40179960  0.70374762  0.27432488    -0.56300
O474        O  0.85426759  0.74229231  0.17242872    -0.54700
O475        O  0.52253755  0.74143754  0.26148927    -0.54700
O476        O  0.89954251  0.71048169  0.14424005    -0.53900
O477        O  0.65443934  0.26156167  0.22374779    -0.55100
C478        C  0.98019451  0.25457533  0.26655386     0.77500
O479        O  0.11626035  0.29143168  0.34511385    -0.56300
C480        C  0.68013650  0.25614441  0.26804419     0.77500
C481        C  0.05993723  0.30037015  0.17762347     0.79900
Cd482      Cd  0.57933943  0.27600244  0.26840574     1.37500
O483        O  0.00260858  0.25838421  0.22215893    -0.55100
O484        O  0.61350802  0.29568842  0.20266944    -0.53900
C485        C  0.57633098  0.29766967  0.35679442     0.79800
O486        O  0.52188712  0.29186735  0.19895542    -0.56300
O487        O  0.00205456  0.26056650  0.31068771    -0.54700
O488        O  0.65945296  0.25974323  0.31298878    -0.54700
O489        O  0.02600181  0.29517406  0.32141451    -0.53900
C490        C  0.49281039  0.35271265  0.00793355     0.82900
N491        N  0.51746447  0.34517430  0.05412825    -0.75400
C492        C  0.51709994  0.32948734  0.05701631     0.85400
N493        N  0.49206146  0.32140893  0.01445507    -0.75300
C494        C  0.54125502  0.32830658  0.47384319     0.85500
N495        N  0.54404799  0.34393145  0.47002672    -0.77000
O496        O  0.90670160  0.24043112  0.31025853    -0.55100
C497        C  0.73086897  0.24603727  0.26695447     0.77500
O498        O  0.86010856  0.20271482  0.21145611    -0.56300
C499        C  0.93014063  0.24413766  0.26630234     0.77500
C500        C  0.81114748  0.20104295  0.34519332     0.79900
Cd501      Cd  0.82722640  0.22486614  0.26336115     1.37500
O502        O  0.75568379  0.24009943  0.31087467    -0.55100
O503        O  0.85983106  0.20744042  0.34304651    -0.53900
C504        C  0.82019015  0.20385320  0.17294005     0.79800
O505        O  0.77083329  0.20587007  0.31123582    -0.56300
O506        O  0.75154798  0.24267924  0.22177479    -0.54700
O507        O  0.90722101  0.23873631  0.22161364    -0.54700
O508        O  0.78628491  0.21521817  0.17395701    -0.53900
C509        C  0.75205405  0.14981890  0.01215801     0.82900
N510        N  0.77564112  0.15833953  0.05488188    -0.75400
C511        C  0.77559167  0.17397247  0.05064472     0.85400
N512        N  0.75161097  0.18110888  0.00416736    -0.75300
C513        C  0.75736299  0.17258321  0.46401260     0.85500
N514        N  0.75342232  0.15696506  0.46740473    -0.77000
C515        C  0.51283940  0.39620287  0.03997141     0.05800
C516        C  0.51522851  0.40462252  0.08929272    -0.10300
C517        C  0.51584051  0.42080739  0.08784488     0.03300
C518        C  0.51458244  0.42873245  0.03611933    -0.08800
C519        C  0.52071731  0.42091459  0.48668540     0.05800
C520        C  0.51866698  0.40471030  0.48882776    -0.08300
H521        H  0.51630422  0.39853601  0.12911928     0.11400
H522        H  0.51521590  0.44123222  0.03467978     0.09000
H523        H  0.51813587  0.39856407  0.45026159     0.08800
C524        C  0.01389079  0.53534507  0.26980012     0.82900
N525        N  0.01507762  0.54327384  0.22050024    -0.75400
C526        C  0.01672427  0.55894132  0.21876895     0.85400
N527        N  0.01704455  0.56684244  0.26705302    -0.75300
C528        C  0.01592305  0.55908040  0.31677227     0.85500
N529        N  0.01432186  0.54337829  0.31782558    -0.77000
C530        C  0.52356964  0.46726465  0.28399124     0.82900
N531        N  0.52215151  0.45936089  0.23571928    -0.75400
C532        C  0.52164658  0.44367894  0.23636500     0.85400
N533        N  0.52242852  0.43576847  0.28595505    -0.75300
C534        C  0.52387488  0.44355379  0.33457039     0.85500
N535        N  0.52441025  0.45922825  0.33321856    -0.77000
C536        C  0.00021029  0.60649873  0.01487104     0.05800
C537        C  0.00513002  0.59804100  0.06554465    -0.10300
C538        C  0.01094546  0.58191414  0.06671006     0.03300
C539        C  0.01186829  0.57407142  0.01622198    -0.08800
C540        C  0.01407082  0.58243651  0.46426397     0.05800
C541        C  0.01341776  0.59868071  0.46361505    -0.08300
H542        H  0.00446684  0.60405315  0.10442531     0.11400
H543        H  0.01630382  0.56162505  0.01676764     0.09000
H544        H  0.01429149  0.60483568  0.42417132     0.08800
C545        C  0.01491979  0.57419014  0.41217599    -0.10600
C546        C  0.01557170  0.56743141  0.36848119    -0.12100
C547        C  0.01652879  0.56705838  0.16535224    -0.10600
C548        C  0.01483226  0.57357626  0.12004873    -0.12900
C549        C  0.51947068  0.50912110  0.23165777    -0.10600
C550        C  0.52136095  0.51731007  0.28152421     0.11500
C551        C  0.01182605  0.50964896  0.32136855    -0.10600
C552        C  0.01003126  0.49346288  0.32205057    -0.10600
C553        C  0.52336946  0.48448810  0.28303251     0.11500
C554        C  0.52045197  0.49294677  0.23239997    -0.10600
H555        H  0.51699999  0.51519686  0.19184453     0.15500
H556        H  0.01361969  0.51552945  0.36058637     0.15500
H557        H  0.01055794  0.48740081  0.36180687     0.15500
H558        H  0.51868235  0.48708261  0.19314846     0.15500
C559        C  0.52281555  0.42893701  0.43309698    -0.10600
C560        C  0.52375682  0.43534883  0.38778766    -0.12100
C561        C  0.51796435  0.42909463  0.13985725    -0.10600
C562        C  0.51972568  0.43557318  0.18416734    -0.12100
C563        C  0.80066353  0.18909073  0.38510565    -0.10600
C564        C  0.78414691  0.18026527  0.41965204    -0.12100
C565        C  0.81188420  0.19244048  0.13099390    -0.10600
C566        C  0.79842735  0.18324434  0.09560411    -0.12100
C567        C  0.49275461  0.36979346  0.00287910    -0.13700
C568        C  0.51314588  0.37898906  0.04423106    -0.28900
H569        H  0.54567540  0.37437875  0.46803848     0.15300
H570        H  0.02786964  0.37495659  0.07332785     0.15900
C571        C  0.56026320  0.31877044  0.43099977    -0.10600
C572        C  0.57093569  0.30936760  0.39719116    -0.12100
C573        C  0.03761421  0.32202255  0.10013896    -0.10600
C574        C  0.05052434  0.31265525  0.13682230    -0.12100
C575        C  0.99360091  0.62366727  0.01637854    -0.13700
C576        C  0.00362376  0.63333642  0.97364137    -0.28900
H577        H  0.98195318  0.62856614  0.05502652     0.15300
H578        H  0.48327395  0.62658530  0.44445260     0.15900
C579        C  0.95097933  0.68404754  0.38614158    -0.10600
C580        C  0.94134739  0.69373556  0.35011455    -0.12100
C581        C  0.45210344  0.69003667  0.10471667    -0.10600
C582        C  0.46147069  0.68035849  0.07147713    -0.12100
C583        C  0.67654344  0.81188790  0.34220459    -0.10600
C584        C  0.68279539  0.82127411  0.37823273    -0.12100
C585        C  0.73821412  0.82395399  0.06466253    -0.10600
C586        C  0.72246860  0.81446150  0.09749631    -0.12100
C587        C  0.76871304  0.88179762  0.00883611    -0.13700
C588        C  0.78692038  0.87263228  0.96940682    -0.28900
H589        H  0.75543687  0.87649835  0.04701040     0.15300
H590        H  0.70549044  0.87645264  0.42271559     0.15900
C591        C  0.74625745  0.93677076  0.35041321    -0.10600
C592        C  0.74596348  0.93019980  0.39544538    -0.12100
C593        C  0.75296001  0.93751080  0.14772303    -0.10600
C594        C  0.75595431  0.93150199  0.10306390    -0.12100
C595        C  0.73570213  0.99434011  0.29382635    -0.10600
C596        C  0.73885936  0.98593045  0.24498444     0.11500
C597        C  0.74058604  0.99411213  0.19409101    -0.10600
C598        C  0.74032509  0.01024133  0.19216418    -0.10600
C599        C  0.73827665  0.01866574  0.24106447     0.11500
C600        C  0.73542054  0.01049957  0.29189262    -0.10600
H601        H  0.73402843  0.98845580  0.33372082     0.15500
H602        H  0.74280357  0.98806812  0.15552673     0.15500
H603        H  0.74230850  0.01609414  0.15225025     0.15500
H604        H  0.73346989  0.01657881  0.33041860     0.15500
C605        C  0.73938014  0.07386202  0.38192526    -0.10600
C606        C  0.74041898  0.06763745  0.33744666    -0.12100
C607        C  0.74514873  0.06738866  0.13460881    -0.10600
C608        C  0.74476673  0.07374390  0.08912483    -0.12100
C609        C  0.75336902  0.13275669  0.01799940    -0.13700
C610        C  0.73371776  0.12333083  0.97713442    -0.28900
H611        H  0.77292875  0.12793596  0.05685639     0.15300
H612        H  0.76161600  0.12853051  0.44180635     0.15900
C613        C  0.73905520  0.10645473  0.48193454     0.05800
C614        C  0.73553136  0.09835092  0.53290357    -0.10300
C615        C  0.73315932  0.08216539  0.53468826     0.03300
C616        C  0.74131688  0.07362583  0.98540338    -0.08800
C617        C  0.73721221  0.08161208  0.93371128     0.05800
C618        C  0.73464199  0.09776266  0.93231788    -0.08300
H619        H  0.73600555  0.10450540  0.57148627     0.11400
H620        H  0.74300017  0.06113093  0.98674341     0.09000
H621        H  0.73140325  0.10386798  0.89246261     0.08800
C622        C  0.74000329  0.96870041  0.74400487     0.82900
N623        N  0.74047274  0.96062753  0.69630802    -0.75400
C624        C  0.74373960  0.94498471  0.69797254     0.85400
N625        N  0.74662853  0.93726985  0.74802764    -0.75300
C626        C  0.74613844  0.94524690  0.79609446     0.85500
N627        N  0.74286666  0.96088837  0.79373517    -0.77000
C628        C  0.73281626  0.03577830  0.73694198     0.82900
N629        N  0.73149539  0.04379227  0.68767881    -0.75400
C630        C  0.73076112  0.05946773  0.68636315     0.85400
N631        N  0.73145525  0.06725350  0.73494122    -0.75300
C632        C  0.73275330  0.05931712  0.78447921     0.85500
N633        N  0.73347592  0.04366912  0.78510240    -0.77000
C634        C  0.73975666  0.89767314  0.50154320     0.05800
C635        C  0.74149633  0.90600813  0.55101187    -0.10300
C636        C  0.74424036  0.92216365  0.55006735     0.03300
C637        C  0.74581809  0.93017523  0.49878644    -0.08800
C638        C  0.75799128  0.92317769  0.94978839     0.05800
C639        C  0.76317176  0.90702998  0.95241417    -0.08300
H640        H  0.74020489  0.89988280  0.59057883     0.11400
H641        H  0.74782743  0.94266532  0.49778265     0.09000
H642        H  0.76291864  0.90083509  0.91395033     0.08800
C643        C  0.71753402  0.85429043  0.46806805     0.82900
N644        N  0.73409758  0.84671334  0.51696116    -0.75400
C645        C  0.73227797  0.83103566  0.51991620     0.85400
N646        N  0.71435502  0.82299522  0.47449913    -0.75300
C647        C  0.80545389  0.83154064  0.93573469     0.85500
N648        N  0.80679090  0.84718676  0.93294927    -0.77000
O649        O  0.73453432  0.76302329  0.77721108    -0.55100
C650        C  0.91231310  0.75929801  0.72907199     0.77500
O651        O  0.74541846  0.79785413  0.68458298    -0.56300
C652        C  0.71162607  0.75737175  0.73291787     0.77500
C653        C  0.82687226  0.80077957  0.81713098     0.79900
Cd654      Cd  0.80945263  0.77832022  0.73202553     1.37500
O655        O  0.88406069  0.76405522  0.68509560    -0.55100
O656        O  0.79822465  0.78861938  0.82459465    -0.53900
C657        C  0.77869064  0.80129993  0.64730848     0.79800
O658        O  0.85078816  0.80214926  0.77212586    -0.56300
O659        O  0.89369249  0.76335521  0.77438824    -0.54700
O660        O  0.73405927  0.76114298  0.68853131    -0.54700
O661        O  0.82514237  0.79370823  0.64730750    -0.53900
C662        C  0.99340490  0.65053275  0.47643423     0.82900
N663        N  0.01469956  0.65787381  0.52325272    -0.75400
C664        C  0.01387759  0.67356852  0.52448884     0.85400
N665        N  0.99189364  0.68181447  0.47967821    -0.75300
C666        C  0.01098924  0.67467991  0.93262935     0.85500
N667        N  0.01404665  0.65905838  0.93166390    -0.77000
O668        O  0.63748708  0.74184586  0.68811925    -0.55100
C669        C  0.96333312  0.74930228  0.72763665     0.77500
O670        O  0.09418338  0.70443535  0.68264306    -0.56300
C671        C  0.66136850  0.74704203  0.73282163     0.77500
C672        C  0.04580078  0.70575678  0.81214694     0.79900
Cd673      Cd  0.05995718  0.72811225  0.72520753     1.37500
O674        O  0.99097292  0.74436146  0.77172775    -0.55100
O675        O  0.60207511  0.71028124  0.81083851    -0.53900
C676        C  0.55769097  0.70321425  0.64942333     0.79800
O677        O  0.51012054  0.70947129  0.79153101    -0.56300
O678        O  0.98123443  0.74495126  0.68230973    -0.54700
O679        O  0.63957418  0.74295020  0.77727463    -0.54700
O680        O  0.02108073  0.71583101  0.63912324    -0.53900
O681        O  0.48749908  0.25919434  0.71386845    -0.55100
C682        C  0.81759474  0.25887010  0.74756717     0.77500
O683        O  0.95292523  0.28662070  0.84367342    -0.56300
C684        C  0.52005369  0.25595442  0.75706737     0.77500
C685        C  0.94228334  0.30167399  0.66997547     0.79900
Cd686      Cd  0.42404634  0.27732101  0.75901840     1.37500
O687        O  0.83859711  0.26337311  0.70320145    -0.55100
O688        O  0.48588605  0.29540462  0.71174308    -0.53900
C689        C  0.42422712  0.29871178  0.84758489     0.79800
O690        O  0.39697718  0.29517506  0.67908576    -0.56300
O691        O  0.84330159  0.26332300  0.79247297    -0.54700
O692        O  0.50739521  0.26210519  0.80159480    -0.54700
O693        O  0.89050600  0.30113270  0.79655206    -0.53900
C694        C  0.52434136  0.35271879  0.51067797     0.82900
N695        N  0.50140562  0.34568021  0.55508789    -0.75400
C696        C  0.49841272  0.33000796  0.55833486     0.85400
N697        N  0.51835834  0.32145188  0.51779239    -0.75300
C698        C  0.46735083  0.32876198  0.96877855     0.85500
N699        N  0.46793512  0.34440808  0.96519047    -0.77000
O700        O  0.74738963  0.24409484  0.79248620    -0.55100
C701        C  0.57071329  0.24585530  0.75528325     0.77500
O702        O  0.71925911  0.20787023  0.69526822    -0.56300
C703        C  0.76708773  0.24862130  0.74756545     0.77500
C704        C  0.68291894  0.20292978  0.83622874     0.79900
Cd705      Cd  0.67253736  0.22670918  0.75054051     1.37500
O706        O  0.60269208  0.24232124  0.79859705    -0.55100
O707        O  0.72446392  0.21157159  0.82568922    -0.53900
C708        C  0.67596283  0.20521629  0.66208215     0.79800
O709        O  0.63490195  0.20572740  0.80974151    -0.56300
O710        O  0.58521586  0.24049284  0.71006710    -0.54700
O711        O  0.74203322  0.24353710  0.70320450    -0.54700
O712        O  0.63091413  0.21302140  0.66742769    -0.53900
C713        C  0.72686211  0.15011521  0.50994592     0.82900
N714        N  0.70443693  0.15903802  0.54871683    -0.75400
C715        C  0.70816150  0.17464496  0.54467992     0.85400
N716        N  0.73472156  0.18131829  0.50255970    -0.75300
C717        C  0.72781461  0.17281747  0.96152486     0.85500
N718        N  0.72806751  0.15712784  0.96516071    -0.77000
C719        C  0.51564955  0.39662070  0.54000946     0.05800
C720        C  0.51407763  0.40508906  0.58895190    -0.10300
C721        C  0.51626486  0.42125645  0.58766440     0.03300
C722        C  0.51965746  0.42916104  0.53633618    -0.08800
C723        C  0.51291188  0.42050486  0.98626440     0.05800
C724        C  0.51212210  0.40430478  0.98849960    -0.08300
H725        H  0.51130850  0.39904297  0.62848380     0.11400
H726        H  0.52110513  0.44165546  0.53498825     0.09000
H727        H  0.51217950  0.39812561  0.95001905     0.08800
C728        C  0.00795911  0.53627357  0.76877650     0.82900
N729        N  0.00981321  0.54421540  0.71962866    -0.75400
C730        C  0.01088728  0.55987965  0.71800947     0.85400
N731        N  0.01004191  0.56776694  0.76628086    -0.75300
C732        C  0.00817144  0.55993551  0.81582084     0.85500
N733        N  0.00716965  0.54425923  0.81669461    -0.77000
C734        C  0.51126236  0.46718262  0.78454817     0.82900
N735        N  0.51179774  0.45940541  0.73615845    -0.75400
C736        C  0.51250474  0.44373823  0.73630098     0.85400
N737        N  0.51266151  0.43569385  0.78557293    -0.75300
C738        C  0.51207219  0.44335412  0.83433087     0.85500
N739        N  0.51143983  0.45903159  0.83347645    -0.77000
C740        C  0.01310664  0.60685022  0.51368086     0.05800
C741        C  0.01404962  0.59848506  0.56433567    -0.10300
C742        C  0.01415458  0.58232240  0.56576275     0.03300
C743        C  0.01420920  0.57430708  0.51557530    -0.08800
C744        C  0.00653444  0.58230117  0.96500170     0.05800
C745        C  0.00038006  0.59841915  0.96465216    -0.08300
H746        H  0.01410640  0.60461247  0.60304919     0.11400
H747        H  0.01446772  0.56180521  0.51644927     0.09000
H748        H  0.99481421  0.60448369  0.92493530     0.08800
C749        C  0.00701351  0.57436942  0.91235907    -0.10600
C750        C  0.00746459  0.56807697  0.86780549    -0.12100
C751        C  0.01268221  0.56793692  0.66473811    -0.10600
C752        C  0.01370416  0.57419398  0.61921376    -0.12900
C753        C  0.51043672  0.50899668  0.73262609    -0.10600
C754        C  0.51279618  0.51719115  0.78244673     0.11500
C755        C  0.00802178  0.51069697  0.82078016    -0.10600
C756        C  0.00742148  0.49452086  0.82187196    -0.10600
C757        C  0.51113769  0.48439134  0.78391929     0.11500
C758        C  0.50960900  0.49284355  0.73335016    -0.10600
H759        H  0.50935181  0.51505328  0.69282623     0.15500
H760        H  0.00952582  0.51663505  0.85987208     0.15500
H761        H  0.00848903  0.48851020  0.86175682     0.15500
H762        H  0.50794549  0.48698914  0.69408431     0.15500
C763        C  0.51256990  0.42854000  0.93253155    -0.10600
C764        C  0.51233684  0.43501425  0.88726470    -0.12100
C765        C  0.51479682  0.42950700  0.63950928    -0.10600
C766        C  0.51360810  0.43581468  0.68394389    -0.12100
C767        C  0.69081819  0.19049092  0.87643221    -0.10600
C768        C  0.70428378  0.18109091  0.91275317    -0.12100
C769        C  0.67867384  0.19376105  0.62049303    -0.10600
C770        C  0.68810853  0.18431844  0.58649002    -0.12100
C771        C  0.52800011  0.36977848  0.50520409    -0.13700
C772        C  0.51199129  0.37941396  0.54433559    -0.28900
H773        H  0.47391081  0.37484069  0.96410056     0.15300
H774        H  0.99146204  0.37572022  0.57521575     0.15900
C775        C  0.44356017  0.31965611  0.92384043    -0.10600
C776        C  0.43050291  0.31033573  0.88883253    -0.12100
C777        C  0.97013324  0.32316834  0.59804008    -0.10600
C778        C  0.95425145  0.31393532  0.63164913    -0.12100
C779        C  0.01344607  0.62407127  0.51560653    -0.13700
C780        C  0.99402677  0.63344649  0.47290875    -0.28900
H781        H  0.02816025  0.62921592  0.55486372     0.15300
H782        H  0.52396606  0.62716569  0.94366451     0.15900
C783        C  0.02759723  0.68417913  0.88730715    -0.10600
C784        C  0.03815004  0.69380025  0.85282228    -0.12100
C785        C  0.55268324  0.69060608  0.61173397    -0.10600
C786        C  0.54200139  0.68088386  0.57745622    -0.12100
C787        C  0.82936877  0.81281913  0.85693863    -0.10600
C788        C  0.82295106  0.82237107  0.89139139    -0.12100
C789        C  0.75052387  0.82252644  0.56985616    -0.10600
C790        C  0.76408539  0.81326956  0.60658955    -0.12100
C791        C  0.73723958  0.88046218  0.50557254    -0.13700
C792        C  0.71966914  0.87136413  0.46292431    -0.28900
H793        H  0.74889582  0.87509168  0.54602757     0.15300
H794        H  0.80311533  0.87767074  0.93216862     0.15900
C795        C  0.74993772  0.93730428  0.84989200    -0.10600
C796        C  0.75351039  0.93110219  0.89573810    -0.12100
C797        C  0.74449290  0.93675765  0.64634129    -0.10600
C798        C  0.74473647  0.93033688  0.60211365    -0.12100
C799        C  0.73829860  0.99425018  0.79121549    -0.10600
C800        C  0.73733728  0.98586568  0.74191904     0.11500
C801        C  0.73443176  0.99407680  0.69077409    -0.10600
C802        C  0.73282882  0.01023316  0.68904731    -0.10600
C803        C  0.73404444  0.01860513  0.73841681     0.11500
C804        C  0.73669461  0.01038064  0.78949128    -0.10600
H805        H  0.74053165  0.98836502  0.83138254     0.15500
H806        H  0.73357385  0.98803601  0.65192157     0.15500
H807        H  0.73074646  0.01614813  0.64893803     0.15500
H808        H  0.73771393  0.01639430  0.82840768     0.15500
C809        C  0.73545935  0.07348448  0.88151588    -0.10600
C810        C  0.73403387  0.06729305  0.83675623    -0.12100
C811        C  0.73033205  0.06767680  0.63325861    -0.10600
C812        C  0.73101538  0.07410133  0.58803545    -0.12100
C813        C  0.72276133  0.13311133  0.51533516    -0.13700
C814        C  0.74304067  0.12357792  0.47809219    -0.28900
H815        H  0.70154217  0.12844124  0.55045129     0.15300
H816        H  0.71687632  0.12841538  0.93757750     0.15900
loop_ 
_geom_bond_atom_site_label_1 
_geom_bond_atom_site_label_2 
_geom_bond_distance 
_geom_bond_site_symmetry_2 
_ccdc_geom_bond_type 
C1            C2   1.412   1_556  A
C1          C210   1.406       .  A
C1          C202   1.493       .  S
C2            C3   1.405       .  A
C2            H7   1.082       .  S
C3          C208   1.410   1_554  A
C3          C200   1.457       .  S
C4            C5   1.410       .  A
C4          C207   1.410       .  A
C4            H8   1.084       .  S
C5            C6   1.403       .  A
C5          C197   1.456       .  S
C6          C205   1.406       .  A
C6            H9   1.085       .  S
C10          N11   1.361       .  A
C10          N15   1.362       .  A
C10         C188   1.491       .  S
N11          C12   1.359       .  A
C12         C185   1.453       .  S
C12          N13   1.365       .  A
N13          C14   1.365       .  A
C14         C183   1.454       .  S
C14          N15   1.359       .  A
C16          N17   1.363       .  A
C16          N21   1.362       .  A
C16         C191   1.492       .  S
N17          C18   1.360       .  A
C18         C199   1.452       .  S
C18          N19   1.364       .  A
N19          C20   1.364       .  A
C20         C198   1.451       .  S
C20          N21   1.358       .  A
C22          C23   1.408   1_556  A
C22         C231   1.415       .  A
C22         C179   1.499       .  S
C23          C24   1.403       .  A
C23          H28   1.085       .  S
C24          C25   1.409   1_554  A
C24         C186   1.457       .  S
C25         C230   1.410       .  A
C25          H29   1.084       .  S
C26          C27   1.405       .  A
C26         C229   1.410       .  A
C26         C184   1.458       .  S
C27         C226   1.412       .  A
C27          H30   1.082       .  S
C31         C180   1.487       .  S
C31          N32   1.368   1_556  A
C31         N240   1.363       .  A
N32          C33   1.363       .  A
C33         C177   1.435       .  S
C33          N34   1.349   1_554  A
N34         C239   1.348       .  A
C35         C176   1.433       .  S
C35          N36   1.359       .  A
C35         N238   1.348       .  A
N36         C235   1.364       .  A
O37          C40   1.265       .  A
O37         Cd42   2.480       .  S
C38          C57   1.476       .  S
C38          O47   1.266       .  A
C38          O43   1.267       .  A
O39          C45   1.264       .  A
O39         Cd42   2.479       .  S
C40          C59   1.477       .  S
C40          O48   1.266       .  A
C41         C175   1.434       .  S
C41          O46   1.265       .  A
C41          O44   1.262       .  A
Cd42         O49   2.467       .  S
Cd42         O48   2.509       .  S
Cd42         O47   2.488       .  S
Cd42         O43   2.487       .  S
Cd42         O46   2.464       .  S
Cd42         O44   2.467       .  S
C45         C178   1.438       .  S
C45          O49   1.263       .  A
C50         C168   1.484       .  S
C50          N51   1.367   1_556  A
C50         N259   1.363       .  A
N51          C52   1.362       .  A
C52         C582   1.432       .  S
C52          N53   1.349   1_554  A
N53         C258   1.347       .  A
C54         C171   1.436       .  S
C54          N55   1.359       .  A
C54         N257   1.349       .  A
N55         C254   1.365       .  A
O56          C59   1.268       .  A
O56        Cd469   2.509   1_455  S
C57          O66   1.265       .  A
C57          O62   1.266       .  A
O58         C472   1.262       .  A
O58         Cd61   2.450       .  S
C59          O67   1.265       .  A
C60         C172   1.438       .  S
C60         O473   1.263       .  A
C60         O471   1.264       .  A
Cd61         O68   2.481       .  S
Cd61         O66   2.490       .  S
Cd61         O62   2.498       .  S
Cd61        O464   2.523       .  S
Cd61        O475   2.482       .  S
Cd61        O473   2.482       .  S
Cd61        O471   2.464       .  S
O63         C468   1.263       .  A
O63        Cd469   2.452       .  S
C64         C173   1.437       .  S
C64         O466   1.263       .  A
C64         O476   1.264       .  A
O65         C468   1.262       .  A
O65        Cd469   2.467       .  S
O67        Cd469   2.474   1_455  S
O68         C472   1.265       .  A
O69          C72   1.266       .  A
O69         Cd74   2.487       .  S
C70          C91   1.472       .  S
C70          O79   1.265       .  A
C70          O75   1.267       .  A
O71         C485   1.263       .  A
O71        Cd482   2.483       .  S
C72          C89   1.471       .  S
C72          O80   1.265       .  A
C73         C166   1.434       .  S
C73         O486   1.263       .  A
C73         O484   1.263       .  A
Cd74         O80   2.477       .  S
Cd74         O78   2.466       .  S
Cd74         O76   2.486       .  S
Cd74        O479   2.479       .  S
Cd74        O489   2.441       .  S
Cd74        O487   2.501       .  S
Cd74        O483   2.486       .  S
O75        Cd482   2.487       .  S
O76         C481   1.263       .  A
C77         C164   1.432       .  S
C77         O479   1.264       .  A
C77         O489   1.262       .  A
O78         C481   1.264       .  A
O79        Cd482   2.474       .  S
O81         C485   1.262       .  A
O81        Cd482   2.454       .  S
C82         C159   1.489       .  S
C82          N83   1.368   1_656  A
C82         N291   1.363       .  A
N83          C84   1.363       .  A
C84         C573   1.438       .  S
C84          N85   1.351   1_455  A
N85         C290   1.350   1_554  A
C86         C163   1.431       .  S
C86          N87   1.357       .  A
C86         N289   1.349       .  A
N87         C286   1.362       .  A
O88          C91   1.266       .  A
O88         Cd93   2.487       .  S
C89          O98   1.265       .  A
C89          O94   1.265       .  A
O90          C96   1.262       .  A
O90         Cd93   2.455       .  S
C91          O99   1.264       .  A
C92         C155   1.435       .  S
C92          O97   1.262       .  A
C92          O95   1.266       .  A
Cd93        O100   2.448       .  S
Cd93         O99   2.486       .  S
Cd93         O98   2.482       .  S
Cd93         O94   2.476       .  S
Cd93         O97   2.441       .  S
Cd93         O95   2.488       .  S
C96         C157   1.430       .  S
C96         O100   1.264       .  A
C101        C201   1.482       .  S
C101        N102   1.362       .  A
C101        N310   1.365   1_554  A
N102        C103   1.358       .  A
C103        C158   1.430       .  S
C103        N104   1.349       .  A
N104        C309   1.350   1_554  A
C105        C156   1.434       .  S
C105        N106   1.361       .  A
C105        N308   1.351       .  A
N106        C305   1.366       .  A
C107        C108   1.408       .  A
C107        C316   1.415   1_554  A
C107        C160   1.499       .  S
C108        C109   1.404       .  A
C108        H113   1.084       .  S
C109        C110   1.410       .  A
C109        C153   1.460       .  S
C110        C315   1.411   1_554  A
C110        H114   1.084       .  S
C111        C112   1.406       .  A
C111        C314   1.411       .  A
C111        C151   1.460       .  S
C112        C311   1.413       .  A
C112        H115   1.082       .  S
C116        N117   1.362       .  A
C116        N121   1.363       .  A
C116        C550   1.493       .  S
N117        C118   1.359       .  A
C118        C139   1.453       .  S
C118        N119   1.364       .  A
N119        C120   1.364       .  A
C120        C138   1.455       .  S
C120        N121   1.360       .  A
C122        N123   1.363       .  A
C122        N127   1.363       .  A
C122        C145   1.496       .  S
N123        C124   1.360       .  A
C124        C154   1.456       .  S
C124        N125   1.365       .  A
N125        C126   1.365       .  A
C126        C152   1.455       .  S
C126        N127   1.360       .  A
C128        C129   1.408       .  A
C128        C337   1.413   1_554  A
C128        C167   1.497       .  S
C129        C130   1.404       .  A
C129        H134   1.084       .  S
C130        C131   1.409       .  A
C130        C140   1.457       .  S
C131        C336   1.409   1_554  A
C131        H135   1.084       .  S
C132        C133   1.406       .  A
C132        C335   1.410       .  A
C132        C137   1.459       .  S
C133        C332   1.413       .  A
C133        H136   1.082       .  S
C137        C138   1.217       .  T
C139        C140   1.216       .  T
C141        C142   1.409       .  A
C141        C146   1.402       .  A
C141        H147   1.083       .  S
C142        C551   1.408       .  A
C142        C524   1.496       .  S
C143        C144   1.401       .  A
C143        C550   1.407       .  A
C143        H148   1.083       .  S
C144        C553   1.408       .  A
C144        H149   1.083       .  S
C145        C146   1.407       .  A
C145        C552   1.409       .  A
C146        H150   1.083       .  S
C151        C152   1.218       .  T
C153        C154   1.218       .  T
C155        C156   1.206       .  T
C157        C158   1.203       .  T
C159        C160   1.349   1_656  D
C159        H365   1.084       .  S
C160        H570   1.087       .  S
H161        C363   1.084       .  S
H162        C568   1.087       .  S
C163        C164   1.204       .  T
C165        C492   1.433       .  S
C165        C166   1.205       .  T
C167        C168   1.349   1_554  D
C167        H169   1.087       .  S
C168        H782   1.083       .  S
H170        C780   1.085       .  S
C171        C172   1.207       .  T
C173        C174   1.206       .  T
C174        C460   1.434       .  S
C175        C176   1.205       .  T
C177        C178   1.207       .  T
C179        C180   1.349       .  D
C179        H181   1.087   1_556  S
C180        H386   1.083       .  S
H182        C384   1.084       .  S
C183        C184   1.217       .  T
C185        C186   1.216       .  T
C187        C188   1.407       .  A
C187        C192   1.400   1_565  A
C187        H193   1.083       .  S
C188        C189   1.408       .  A
C189        C190   1.402   1_565  A
C189        H194   1.083       .  S
C190        C191   1.407       .  A
C190        H195   1.083       .  S
C191        C192   1.407       .  A
C192        H196   1.083       .  S
C197        C198   1.215       .  T
C199        C200   1.216       .  T
C201        C202   1.348   1_554  D
C201        H203   1.084       .  S
C202        H408   1.087       .  S
H204        C406   1.087       .  S
C205        C206   1.412       .  A
C205        C406   1.493       .  S
C206        C207   1.404       .  A
C206        H211   1.082       .  S
C207        C404   1.457       .  S
C208        C209   1.409       .  A
C208        H212   1.084       .  S
C209        C210   1.402       .  A
C209        C401   1.456       .  S
C210        H213   1.085       .  S
C214        N215   1.362       .  A
C214        N219   1.364       .  A
C214        C392   1.493       .  S
N215        C216   1.358       .  A
C216        C389   1.453       .  S
C216        N217   1.364       .  A
N217        C218   1.364       .  A
C218        C387   1.455       .  S
C218        N219   1.361       .  A
C220        N221   1.362       .  A
C220        N225   1.361       .  A
C220        C395   1.492       .  S
N221        C222   1.359       .  A
C222        C403   1.453       .  S
C222        N223   1.365       .  A
N223        C224   1.365       .  A
C224        C402   1.452       .  S
C224        N225   1.358       .  A
C226        C227   1.408       .  A
C226        C383   1.496       .  S
C227        C228   1.404       .  A
C227        H232   1.084       .  S
C228        C229   1.410       .  A
C228        C390   1.457       .  S
C229        H233   1.084       .  S
C230        C231   1.407       .  A
C230        C388   1.460       .  S
C231        H234   1.081       .  S
C235        C384   1.485       .  S
C235        N236   1.367       .  A
N236        C237   1.361       .  A
C237        C381   1.433       .  S
C237        N238   1.349       .  A
C239        C380   1.431       .  S
C239        N240   1.358       .  A
O241        C244   1.266       .  A
O241       Cd246   2.487       .  S
C242        C261   1.474       .  S
C242        O251   1.264       .  A
C242        O247   1.266       .  A
O243        C249   1.264       .  A
O243       Cd246   2.459       .  S
C244        C263   1.476       .  S
C244        O252   1.266       .  A
C245        C379   1.432       .  S
C245        O250   1.264       .  A
C245        O248   1.263       .  A
Cd246       O253   2.475       .  S
Cd246       O252   2.492       .  S
Cd246       O251   2.480       .  S
Cd246       O247   2.496       .  S
Cd246       O250   2.470       .  S
Cd246       O248   2.446       .  S
C249        C382   1.435       .  S
C249        O253   1.262       .  A
C254        C372   1.487       .  S
C254        N255   1.367       .  A
N255        C256   1.362       .  A
C256        C786   1.435       .  S
C256        N257   1.350       .  A
C258        C375   1.431       .  S
C258        N259   1.358       .  A
O260        C263   1.265       .  A
O260       Cd673   2.498       .  S
C261        O270   1.266       .  A
C261        O266   1.266       .  A
O262        C676   1.263       .  A
O262       Cd265   2.484       .  S
C263        O271   1.265       .  A
C264        C376   1.432       .  S
C264        O677   1.261       .  A
C264        O675   1.264       .  A
Cd265       O668   2.481       .  S
Cd265       O272   2.456       .  S
Cd265       O679   2.490       .  S
Cd265       O270   2.488       .  S
Cd265       O266   2.479       .  S
Cd265       O677   2.440       .  S
Cd265       O675   2.480       .  S
O267        C672   1.266       .  A
O267       Cd673   2.475       .  S
C268        C377   1.437       .  S
C268        O670   1.262       .  A
C268        O680   1.265       .  A
O269        C672   1.262       .  A
O269       Cd673   2.439       .  S
O271       Cd673   2.491       .  S
O272        C676   1.263       .  A
O273        C276   1.265   1_655  A
O273       Cd278   2.490       .  S
C274        C295   1.474       .  S
C274        O283   1.264       .  A
C274        O279   1.265       .  A
O275        C689   1.265       .  A
O275       Cd686   2.452       .  S
C276        C293   1.470       .  S
C276        O284   1.264       .  A
C277        C370   1.437       .  S
C277        O690   1.266       .  A
C277        O688   1.262       .  A
Cd278       O683   2.453       .  S
Cd278       O693   2.466       .  S
Cd278       O284   2.473   1_655  S
Cd278       O691   2.479       .  S
Cd278       O687   2.507       .  S
Cd278       O282   2.486       .  S
Cd278       O280   2.441       .  S
O279       Cd686   2.492       .  S
O280        C685   1.262       .  A
C281        C368   1.434       .  S
C281        O683   1.265       .  A
C281        O693   1.264       .  A
O282        C685   1.267       .  A
O283       Cd686   2.490       .  S
O285        C689   1.262       .  A
O285       Cd686   2.460       .  S
C286        C363   1.485       .  S
C286        N287   1.367   1_455  A
N287        C288   1.362       .  A
C288        C777   1.434       .  S
C288        N289   1.350   1_655  A
C290        C367   1.435       .  S
C290        N291   1.358       .  A
O292        C295   1.267       .  A
O292       Cd297   2.486       .  S
C293        O302   1.265       .  A
C293        O298   1.264       .  A
O294        C300   1.263       .  A
O294       Cd297   2.453       .  S
C295        O303   1.266       .  A
C296        C359   1.431       .  S
C296        O301   1.263       .  A
C296        O299   1.262       .  A
Cd297       O304   2.471       .  S
Cd297       O303   2.482       .  S
Cd297       O302   2.488       .  S
Cd297       O298   2.471       .  S
Cd297       O301   2.471       .  S
Cd297       O299   2.448       .  S
C300        C361   1.432       .  S
C300        O304   1.262       .  A
C305        C405   1.482       .  S
C305        N306   1.362       .  A
N306        C307   1.357       .  A
C307        C362   1.432       .  S
C307        N308   1.350       .  A
C309        C360   1.430       .  S
C309        N310   1.359       .  A
C311        C312   1.406       .  A
C311        C364   1.495       .  S
C312        C313   1.402       .  A
C312        H317   1.085       .  S
C313        C314   1.410       .  A
C313        C357   1.457       .  S
C314        H318   1.084       .  S
C315        C316   1.409       .  A
C315        C355   1.461       .  S
C316        H319   1.082       .  S
C320        N321   1.362       .  A
C320        N325   1.362       .  A
C320        C754   1.492       .  S
N321        C322   1.359       .  A
C322        C343   1.454       .  S
C322        N323   1.364       .  A
N323        C324   1.365       .  A
C324        C342   1.453       .  S
C324        N325   1.359       .  A
C326        N327   1.362       .  A
C326        N331   1.364       .  A
C326        C349   1.494       .  S
N327        C328   1.358       .  A
C328        C358   1.453       .  S
C328        N329   1.364       .  A
N329        C330   1.364       .  A
C330        C356   1.457       .  S
C330        N331   1.361       .  A
C332        C333   1.409       .  A
C332        C371   1.498       .  S
C333        C334   1.405       .  A
C333        H338   1.084       .  S
C334        C335   1.410       .  A
C334        C344   1.459       .  S
C335        H339   1.084       .  S
C336        C337   1.404       .  A
C336        C341   1.457       .  S
C337        H340   1.081       .  S
C341        C342   1.216       .  T
C343        C344   1.217       .  T
C345        C346   1.407       .  A
C345        C350   1.401       .  A
C345        H351   1.083       .  S
C346        C755   1.408       .  A
C346        C728   1.492       .  S
C347        C754   1.408       .  A
C347        C348   1.402       .  A
C347        H352   1.083       .  S
C348        C757   1.408       .  A
C348        H353   1.083       .  S
C349        C756   1.407       .  A
C349        C350   1.408       .  A
C350        H354   1.083       .  S
C355        C356   1.219       .  T
C357        C358   1.216       .  T
C359        C360   1.203       .  T
C361        C362   1.204       .  T
C363        C364   1.348       .  D
C364        H774   1.087   1_455  S
H366        C772   1.087       .  S
C367        C368   1.205       .  T
C369        C696   1.436       .  S
C369        C370   1.207       .  T
C371        C372   1.350       .  D
C371        H373   1.087       .  S
C372        H578   1.084       .  S
H374        C576   1.084       .  S
C375        C376   1.204       .  T
C377        C378   1.207       .  T
C378        C664   1.435       .  S
C379        C380   1.204       .  T
C381        C382   1.205       .  T
C383        C384   1.349       .  D
C383        H385   1.087       .  S
C387        C388   1.218       .  T
C389        C390   1.216       .  T
C391        C392   1.407       .  A
C391        C396   1.402   1_565  A
C391        H397   1.083       .  S
C392        C393   1.408       .  A
C393        C394   1.401   1_565  A
C393        H398   1.083       .  S
C394        C395   1.407       .  A
C394        H399   1.083       .  S
C395        C396   1.408       .  A
C396        H400   1.083       .  S
C401        C402   1.215       .  T
C403        C404   1.216       .  T
C405        C406   1.347       .  D
C405        H407   1.085       .  S
C409        C410   1.412   1_556  A
C409        C618   1.405       .  A
C409        C610   1.493       .  S
C410        C411   1.405       .  A
C410        H415   1.082       .  S
C411        C616   1.410   1_554  A
C411        C608   1.457       .  S
C412        C615   1.410       .  A
C412        C413   1.409       .  A
C412        H416   1.084       .  S
C413        C414   1.400       .  A
C413        C605   1.453       .  S
C414        C613   1.404       .  A
C414        H417   1.085       .  S
C418        N419   1.359       .  A
C418        N423   1.362       .  A
C418        C596   1.489       .  S
N419        C420   1.355       .  A
C420        C593   1.449       .  S
C420        N421   1.364       .  A
N421        C422   1.365       .  A
C422        C591   1.453       .  S
C422        N423   1.360       .  A
C424        N425   1.362       .  A
C424        N429   1.360       .  A
C424        C599   1.489       .  S
N425        C426   1.359       .  A
C426        C607   1.453       .  S
C426        N427   1.364       .  A
N427        C428   1.364       .  A
C428        C606   1.448       .  S
C428        N429   1.357       .  A
C430        C431   1.404       .  A
C430        C639   1.412   1_554  A
C430        C587   1.492       .  S
C431        C432   1.400       .  A
C431        H436   1.085       .  S
C432        C433   1.410   1_554  A
C432        C594   1.453       .  S
C433        C638   1.410       .  A
C433        H437   1.084       .  S
C434        C637   1.409       .  A
C434        C435   1.405       .  A
C434        C592   1.457       .  S
C435        C634   1.413       .  A
C435        H438   1.082       .  S
C439        C588   1.483       .  S
C439        N440   1.367   1_556  A
C439        N648   1.362       .  A
N440        C441   1.361       .  A
C441        C585   1.436       .  S
C441        N442   1.350   1_554  A
N442        C647   1.349       .  A
C443        C584   1.432       .  S
C443        N646   1.349       .  A
C443        N444   1.358       .  A
N444        C643   1.363       .  A
O445        C448   1.264       .  A
O445       Cd450   2.478       .  S
C446        C465   1.474       .  S
C446        O455   1.266       .  A
C446        O451   1.266       .  A
O447        C453   1.268       .  A
O447       Cd450   2.491       .  S
C448        C467   1.479       .  S
C448        O456   1.267       .  A
C449        C583   1.433       .  S
C449        O454   1.265       .  A
C449        O452   1.262       .  A
Cd450       O457   2.448       .  S
Cd450       O456   2.523       .  S
Cd450       O455   2.483       .  S
Cd450       O451   2.491       .  S
Cd450       O454   2.457       .  S
Cd450       O452   2.464       .  S
C453        C586   1.438       .  S
C453        O457   1.262       .  A
C458        C576   1.485   1_655  S
C458        N459   1.367   1_556  A
C458        N667   1.363   1_655  A
N459        C460   1.363       .  A
C460        N461   1.350   1_554  A
N461        C666   1.348   1_655  A
C462        C579   1.431       .  S
C462        N665   1.348       .  A
C462        N463   1.358       .  A
N463        C662   1.363       .  A
O464        C467   1.266       .  A
C465        O474   1.266       .  A
C465        O470   1.265       .  A
O466       Cd469   2.461       .  S
C467        O475   1.264       .  A
C468        C580   1.431       .  S
Cd469       O476   2.482       .  S
Cd469       O474   2.493       .  S
Cd469       O470   2.484       .  S
C472        C581   1.435       .  S
O477        C480   1.264       .  A
O477       Cd482   2.478       .  S
C478        C499   1.476       .  S
C478        O487   1.266   1_655  A
C478        O483   1.265   1_655  A
C480        C497   1.473       .  S
C480        O488   1.266       .  A
C481        C574   1.439       .  S
Cd482       O488   2.497       .  S
Cd482       O486   2.456       .  S
Cd482       O484   2.478       .  S
C485        C572   1.434       .  S
C490        C567   1.484       .  S
C490        N491   1.366       .  A
C490        N699   1.363   1_554  A
N491        C492   1.361       .  A
C492        N493   1.350       .  A
N493        C698   1.349   1_554  A
C494        C571   1.434       .  S
C494        N697   1.350       .  A
C494        N495   1.358       .  A
N495        C694   1.363       .  A
O496        C499   1.266       .  A
O496       Cd501   2.503       .  S
C497        O506   1.265       .  A
C497        O502   1.265       .  A
O498        C504   1.263       .  A
O498       Cd501   2.470       .  S
C499        O507   1.264       .  A
C500        C563   1.433       .  S
C500        O505   1.261       .  A
C500        O503   1.266       .  A
Cd501       O508   2.453       .  S
Cd501       O507   2.485       .  S
Cd501       O506   2.479       .  S
Cd501       O502   2.490       .  S
Cd501       O505   2.435       .  S
Cd501       O503   2.489       .  S
C504        C565   1.433       .  S
C504        O508   1.264       .  A
C509        C609   1.483       .  S
C509        N510   1.362       .  A
C509        N718   1.366   1_554  A
N510        C511   1.357       .  A
C511        C566   1.433       .  S
C511        N512   1.350       .  A
N512        C717   1.351   1_554  A
C513        C564   1.432       .  S
C513        N716   1.351       .  A
C513        N514   1.359       .  A
N514        C713   1.365       .  A
C515        C516   1.407       .  A
C515        C724   1.412   1_554  A
C515        C568   1.494       .  S
C516        C517   1.403       .  A
C516        H521   1.084       .  S
C517        C518   1.409       .  A
C517        C561   1.457       .  S
C518        C723   1.410   1_554  A
C518        H522   1.084       .  S
C519        C722   1.410       .  A
C519        C520   1.406       .  A
C519        C559   1.459       .  S
C520        C719   1.413       .  A
C520        H523   1.082       .  S
C524        N525   1.363       .  A
C524        N529   1.364       .  A
N525        C526   1.359       .  A
C526        C547   1.454       .  S
C526        N527   1.364       .  A
N527        C528   1.364       .  A
C528        C546   1.457       .  S
C528        N529   1.362       .  A
C530        N531   1.363       .  A
C530        N535   1.362       .  A
C530        C553   1.493       .  S
N531        C532   1.360       .  A
C532        C562   1.453       .  S
C532        N533   1.365       .  A
N533        C534   1.364       .  A
C534        C560   1.454       .  S
C534        N535   1.359       .  A
C536        C537   1.408       .  A
C536        C745   1.413   1_554  A
C536        C575   1.498   1_455  S
C537        C538   1.404       .  A
C537        H542   1.084       .  S
C538        C539   1.410       .  A
C538        C548   1.458       .  S
C539        C744   1.410   1_554  A
C539        H543   1.084       .  S
C540        C743   1.411       .  A
C540        C541   1.409       .  A
C540        C545   1.461       .  S
C541        C740   1.414       .  A
C541        H544   1.082       .  S
C545        C546   1.219       .  T
C547        C548   1.217       .  T
C549        C550   1.408       .  A
C549        C554   1.403       .  A
C549        H555   1.083       .  S
C551        C552   1.404       .  A
C551        H556   1.083       .  S
C552        H557   1.083       .  S
C553        C554   1.408       .  A
C554        H558   1.083       .  S
C559        C560   1.217       .  T
C561        C562   1.216       .  T
C563        C564   1.204       .  T
C565        C566   1.205       .  T
C567        C568   1.348       .  D
C567        H773   1.084   1_554  S
H569        C771   1.084       .  S
C571        C572   1.205       .  T
C573        C574   1.208       .  T
C575        C576   1.349   1_654  D
C575        H577   1.087       .  S
C579        C580   1.203       .  T
C581        C582   1.205       .  T
C583        C584   1.204       .  T
C585        C586   1.207       .  T
C587        C588   1.346   1_554  D
C587        H589   1.087       .  S
C588        H794   1.085       .  S
H590        C792   1.084       .  S
C591        C592   1.216       .  T
C593        C594   1.214       .  T
C595        C596   1.406       .  A
C595        C600   1.401   1_565  A
C595        H601   1.083       .  S
C596        C597   1.408       .  A
C597        C598   1.398   1_565  A
C597        H602   1.083       .  S
C598        C599   1.405       .  A
C598        H603   1.083       .  S
C599        C600   1.408       .  A
C600        H604   1.083       .  S
C605        C606   1.214       .  T
C607        C608   1.216       .  T
C609        C610   1.347   1_554  D
C609        H611   1.084       .  S
C610        H816   1.087       .  S
H612        C814   1.087       .  S
C613        C614   1.411       .  A
C613        C814   1.489       .  S
C614        C615   1.405       .  A
C614        H619   1.082       .  S
C615        C812   1.455       .  S
C616        C617   1.409       .  A
C616        H620   1.084       .  S
C617        C618   1.401       .  A
C617        C809   1.454       .  S
C618        H621   1.085       .  S
C622        N623   1.361       .  A
C622        N627   1.362       .  A
C622        C800   1.489       .  S
N623        C624   1.358       .  A
C624        C797   1.450       .  S
C624        N625   1.364       .  A
N625        C626   1.364       .  A
C626        C795   1.452       .  S
C626        N627   1.358       .  A
C628        N629   1.362       .  A
C628        N633   1.360       .  A
C628        C803   1.489       .  S
N629        C630   1.359       .  A
C630        C811   1.451       .  S
C630        N631   1.364       .  A
N631        C632   1.364       .  A
C632        C810   1.450       .  S
C632        N633   1.357       .  A
C634        C635   1.407       .  A
C634        C791   1.495       .  S
C635        C636   1.402       .  A
C635        H640   1.085       .  S
C636        C637   1.408       .  A
C636        C798   1.455       .  S
C637        H641   1.084       .  S
C638        C639   1.405       .  A
C638        C796   1.457       .  S
C639        H642   1.082       .  S
C643        C792   1.484       .  S
C643        N644   1.366       .  A
N644        C645   1.361       .  A
C645        C789   1.434       .  S
C645        N646   1.350       .  A
C647        C788   1.431       .  S
C647        N648   1.358       .  A
O649        C652   1.265       .  A
O649       Cd654   2.496       .  S
C650        C669   1.473       .  S
C650        O659   1.264       .  A
C650        O655   1.264       .  A
O651        C657   1.263       .  A
O651       Cd654   2.458       .  S
C652        C671   1.474       .  S
C652        O660   1.265       .  A
C653        C787   1.432       .  S
C653        O658   1.262       .  A
C653        O656   1.265       .  A
Cd654       O661   2.467       .  S
Cd654       O660   2.486       .  S
Cd654       O659   2.489       .  S
Cd654       O655   2.490       .  S
Cd654       O658   2.465       .  S
Cd654       O656   2.456       .  S
C657        C790   1.435       .  S
C657        O661   1.266       .  A
C662        C780   1.486       .  S
C662        N663   1.368   1_655  A
N663        C664   1.362       .  A
C664        N665   1.349   1_455  A
C666        C783   1.432       .  S
C666        N667   1.357       .  A
O668        C671   1.266       .  A
C669        O678   1.266       .  A
C669        O674   1.265       .  A
O670       Cd673   2.475       .  S
C671        O679   1.266       .  A
C672        C784   1.433       .  S
Cd673       O680   2.464       .  S
Cd673       O678   2.489   1_455  S
Cd673       O674   2.485   1_455  S
C676        C785   1.436       .  S
O681        C684   1.266       .  A
O681       Cd686   2.483       .  S
C682        C703   1.474       .  S
C682        O691   1.264       .  A
C682        O687   1.265       .  A
C684        C701   1.473       .  S
C684        O692   1.265       .  A
C685        C778   1.435       .  S
Cd686       O692   2.487       .  S
Cd686       O690   2.487       .  S
Cd686       O688   2.453       .  S
C689        C776   1.432       .  S
C694        C771   1.485       .  S
C694        N695   1.366       .  A
N695        C696   1.362       .  A
C696        N697   1.351       .  A
C698        C775   1.432       .  S
C698        N699   1.358       .  A
O700        C703   1.264       .  A
O700       Cd705   2.475       .  S
C701        O710   1.265       .  A
C701        O706   1.266       .  A
O702        C708   1.261       .  A
O702       Cd705   2.440       .  S
C703        O711   1.266       .  A
C704        C767   1.436       .  S
C704        O709   1.264       .  A
C704        O707   1.262       .  A
Cd705       O712   2.484       .  S
Cd705       O711   2.504       .  S
Cd705       O710   2.479       .  S
Cd705       O706   2.487       .  S
Cd705       O709   2.490       .  S
Cd705       O707   2.453       .  S
C708        C769   1.432       .  S
C708        O712   1.265       .  A
C713        C813   1.481       .  S
C713        N714   1.362       .  A
N714        C715   1.358       .  A
C715        C770   1.432       .  S
C715        N716   1.350       .  A
C717        C768   1.435       .  S
C717        N718   1.361       .  A
C719        C720   1.407       .  A
C719        C772   1.496       .  S
C720        C721   1.403       .  A
C720        H725   1.084       .  S
C721        C722   1.410       .  A
C721        C765   1.457       .  S
C722        H726   1.084       .  S
C723        C724   1.405       .  A
C723        C763   1.457       .  S
C724        H727   1.082       .  S
C728        N729   1.362       .  A
C728        N733   1.362       .  A
N729        C730   1.358       .  A
C730        C751   1.453       .  S
C730        N731   1.365       .  A
N731        C732   1.365       .  A
C732        C750   1.454       .  S
C732        N733   1.359       .  A
C734        N735   1.362       .  A
C734        N739   1.362       .  A
C734        C757   1.492       .  S
N735        C736   1.359       .  A
C736        C766   1.453       .  S
C736        N737   1.365       .  A
N737        C738   1.365       .  A
C738        C764   1.453       .  S
C738        N739   1.359       .  A
C740        C741   1.406       .  A
C740        C779   1.495       .  S
C741        C742   1.401       .  A
C741        H746   1.085       .  S
C742        C743   1.409       .  A
C742        C752   1.457       .  S
C743        H747   1.084       .  S
C744        C745   1.405       .  A
C744        C749   1.458       .  S
C745        H748   1.081   1_455  S
C749        C750   1.217       .  T
C751        C752   1.216       .  T
C753        C754   1.407       .  A
C753        C758   1.401       .  A
C753        H759   1.083       .  S
C755        C756   1.403       .  A
C755        H760   1.083       .  S
C756        H761   1.083       .  S
C757        C758   1.407       .  A
C758        H762   1.083       .  S
C763        C764   1.216       .  T
C765        C766   1.216       .  T
C767        C768   1.206       .  T
C769        C770   1.204       .  T
C771        C772   1.349       .  D
C775        C776   1.204       .  T
C777        C778   1.206       .  T
C779        C780   1.347   1_455  D
C779        H781   1.087       .  S
C783        C784   1.204       .  T
C785        C786   1.206       .  T
C787        C788   1.204       .  T
C789        C790   1.206       .  T
C791        C792   1.348       .  D
C791        H793   1.087       .  S
C795        C796   1.216       .  T
C797        C798   1.215       .  T
C799        C800   1.406       .  A
C799        C804   1.399   1_565  A
C799        H805   1.083       .  S
C800        C801   1.408       .  A
C801        C802   1.401   1_565  A
C801        H806   1.083       .  S
C802        C803   1.407       .  A
C802        H807   1.083       .  S
C803        C804   1.407       .  A
C804        H808   1.083       .  S
C809        C810   1.215       .  T
C811        C812   1.215       .  T
C813        C814   1.347       .  D
C813        H815   1.085       .  S
