geometry optimzed in LAMMPS
_audit_creation_date              2020-11-30 
_audit_creation_method            'lammps2cif' 
_symmetry_space_group_name_H-M    'P1' 
_symmetry_Int_Tables_number       1 
_symmetry_cell_setting            triclinic 
loop_ 
_symmetry_equiv_pos_as_xyz 
  x,y,z 
_cell_length_a                    44.96523176 
_cell_length_b                    40.32189062836076 
_cell_length_c                    34.66872034245091 
_cell_angle_alpha                 89.42861480829289 
_cell_angle_beta                  89.84712318602192 
_cell_angle_gamma                 89.65159653657582 
loop_ 
_atom_site_label 
_atom_site_type_symbol 
_atom_site_fract_x 
_atom_site_fract_y 
_atom_site_fract_z 
_atom_site_charge 
C1          C  0.88966979  0.25037476  0.03686629     0.80200
N2          N  0.91983080  0.24989233  0.03563114    -0.78100
C3          C  0.93463420  0.24931148  0.50152816     0.82700
N4          N  0.91883385  0.24940064  0.46832214    -0.78000
C5          C  0.88865546  0.24975460  0.46875028     0.82800
N6          N  0.87412573  0.25020059  0.00322736    -0.79800
C7          C  0.10895306  0.25357986  0.46149584     0.80200
N8          N  0.07874872  0.25322689  0.46182192    -0.78100
C9          C  0.06343279  0.25249502  0.49550644     0.82700
N10         N  0.07867268  0.25215247  0.02910806    -0.78000
C11         C  0.10879381  0.25235579  0.02970080     0.82800
N12         N  0.12392495  0.25318979  0.49561948    -0.79800
In13       In  0.30093818  0.50464011  0.25258784     1.36900
C14         C  0.27535898  0.44539971  0.25223753     0.77600
O15         O  0.30067443  0.00499995  0.18748057    -0.60900
O16         O  0.34157922  0.50176785  0.21579135    -0.51800
C17         C  0.27547781  0.06481656  0.25262955     0.70200
O18         O  0.26111067  0.03818384  0.25598730    -0.46600
C19         C  0.32847698  0.50355261  0.32035366     0.74900
O20         O  0.26061628  0.47213412  0.25316230    -0.58500
O21         O  0.34153073  0.51002334  0.28902760    -0.48600
O22         O  0.30316161  0.44923452  0.25155936    -0.54900
C23         C  0.32778234  0.50263097  0.18421856     0.85100
O24         O  0.30313137  0.06067757  0.24937375    -0.56800
O25         O  0.30203229  0.99790372  0.31687132    -0.60100
In26       In  0.19627426  0.25577985  0.24552246     1.36900
C27         C  0.22224398  0.31499023  0.24746512     0.77600
O28         O  0.19783228  0.25825414  0.18060553    -0.60900
O29         O  0.15629145  0.25054677  0.20789502    -0.51800
C30         C  0.22196462  0.19604083  0.24818307     0.70200
O31         O  0.23656020  0.22253955  0.24472231    -0.46600
C32         C  0.16889165  0.25715390  0.31341870     0.74900
O33         O  0.23682827  0.28820244  0.24603281    -0.58500
O34         O  0.15541341  0.26140632  0.28187949    -0.48600
O35         O  0.19444055  0.31127831  0.24739234    -0.54900
C36         C  0.17031705  0.25377098  0.17658613     0.85100
O37         O  0.19422489  0.20031839  0.25016251    -0.56800
O38         O  0.19653821  0.25251140  0.31004442    -0.60100
In39       In  0.69798417  0.99815395  0.24559801     1.36900
C40         C  0.72189102  0.43784619  0.24565995     0.77600
O41         O  0.69815426  0.99403329  0.31058029    -0.60900
O42         O  0.65554407  0.49785187  0.28121435    -0.51800
C43         C  0.72340538  0.05788149  0.24709774     0.70200
O44         O  0.73833463  0.03132006  0.24540686    -0.46600
C45         C  0.67110193  0.99914781  0.17727665     0.74900
O46         O  0.73669328  0.46419909  0.24850443    -0.58500
O47         O  0.65740736  0.99777112  0.20897309    -0.48600
O48         O  0.69435212  0.44243703  0.24165116    -0.54900
C49         C  0.67024695  0.99592358  0.31373246     0.85100
O50         O  0.69569819  0.05362159  0.24781308    -0.56800
O51         O  0.69904144  0.00030272  0.18045898    -0.60100
In52       In  0.80183459  0.24778051  0.25296695     1.36900
C53         C  0.77774436  0.18772825  0.25303895     0.77600
O54         O  0.80118610  0.24454484  0.18830975    -0.60900
O55         O  0.84258133  0.25189540  0.21570250    -0.51800
C56         C  0.77460038  0.30659287  0.25228290     0.70200
O57         O  0.76041511  0.27972958  0.25391607    -0.46600
C58         C  0.82832202  0.24897878  0.32133590     0.74900
O59         O  0.76250135  0.21404874  0.25058725    -0.58500
O60         O  0.84233329  0.24885052  0.28981962    -0.48600
O61         O  0.80535049  0.19234753  0.25597618    -0.54900
C62         C  0.82881713  0.24841490  0.18439892     0.85100
O63         O  0.80240383  0.30299734  0.25118396    -0.56800
O64         O  0.80042845  0.24791335  0.31787614    -0.60100
C65         C  0.38841679  0.49993735  0.46782051     0.80200
N66         N  0.41855712  0.50102035  0.46820575    -0.78100
C67         C  0.43380249  0.50167944  0.50183666     0.82700
N68         N  0.41838386  0.50143966  0.03554463    -0.78000
C69         C  0.38813647  0.50042539  0.03595626     0.82800
N70         N  0.37329170  0.49969123  0.50183881    -0.79800
C71         C  0.60892809  0.49865994  0.02936568     0.80200
N72         N  0.57875950  0.50041752  0.02945299    -0.78100
C73         C  0.56311292  0.50027081  0.49605780     0.82700
N74         N  0.57811417  0.49815392  0.46210613    -0.78000
C75         C  0.60833457  0.49621760  0.46124132     0.82800
N76         N  0.62355267  0.49655083  0.49509443    -0.79800
C77         C  0.46689499  0.50241865  0.50120823    -0.05500
C78         C  0.48177329  0.50790423  0.46597611    -0.32900
C79         C  0.51285092  0.50739612  0.46368681     0.36300
C80         C  0.53000956  0.50165135  0.49716431    -0.05800
C81         C  0.51617170  0.99599611  0.03278284    -0.32800
C82         C  0.48507395  0.99621487  0.03489016     0.36300
H83         H  0.46932219  0.51248798  0.43973323     0.16600
O84         O  0.52605728  0.51321036  0.42858194    -0.60300
H85         H  0.52857575  0.99116139  0.05900434     0.16600
O86         O  0.47177734  0.98960788  0.06975333    -0.60400
H87         H  0.47165745  0.01102207  0.08357819     0.43600
H88         H  0.52602833  0.49150533  0.41536735     0.43600
C89         C  0.62545481  0.99458250  0.42417079    -0.05500
C90         C  0.60800865  0.49822394  0.38910807    -0.32900
C91         C  0.62210792  0.49796449  0.35310320     0.36300
C92         C  0.65451970  0.99465639  0.35138367    -0.05800
C93         C  0.67052568  0.98820619  0.38540044    -0.32800
C94         C  0.65630763  0.98788369  0.42145487     0.36300
H95         H  0.58415145  0.50197527  0.38988656     0.16600
O96         O  0.60518961  0.50252422  0.32060041    -0.60300
H97         H  0.69424792  0.98345147  0.38413678     0.16600
O98         O  0.67298488  0.98123168  0.45368800    -0.59800
H99         H  0.67184498  0.95686158  0.45748131     0.43600
H100        H  0.59820243  0.48006815  0.31372257     0.43600
C101        C  0.65554722  0.99920118  0.13966203    -0.05500
C102        C  0.67149412  0.00502097  0.10541108    -0.32900
C103        C  0.65720359  0.00493892  0.06948654     0.36300
C104        C  0.62527740  0.49854908  0.06662261    -0.05800
C105        C  0.60938427  0.49298589  0.10104729    -0.32800
C106        C  0.62359732  0.49307017  0.13681360     0.36300
H107        H  0.69515237  0.00986145  0.10641217     0.16600
O108        O  0.67352959  0.01186706  0.03696527    -0.60300
H109        H  0.58567611  0.48840815  0.10046116     0.16600
O110        O  0.60703242  0.48711157  0.16941217    -0.60400
H111        H  0.59861749  0.50898744  0.17662952     0.43600
H112        H  0.68454756  0.99109998  0.03126471     0.43600
C113        C  0.76422356  0.15433159  0.25205150    -0.05500
C114        C  0.73330294  0.15150072  0.24791548    -0.32900
C115        C  0.71975998  0.12040422  0.24622277     0.36300
C116        C  0.73716753  0.09119513  0.24849547    -0.05800
C117        C  0.76812040  0.09401254  0.25253195    -0.32800
C118        C  0.78165346  0.12516057  0.25446776     0.36300
H119        H  0.71944635  0.17351692  0.24577283     0.16600
O120        O  0.68953852  0.11899096  0.24133272    -0.60300
H121        H  0.78195832  0.07196744  0.25436185     0.16600
O122        O  0.81198240  0.12667721  0.25804125    -0.60400
H123        H  0.81576409  0.12633622  0.28621288     0.43600
H124        H  0.68104619  0.12038212  0.26770191     0.43600
C125        C  0.73541253  0.40428379  0.24741747    -0.05500
C126        C  0.71703908  0.37615530  0.24836501    -0.32900
C127        C  0.72926335  0.34411736  0.25040120     0.36300
C128        C  0.76039515  0.33978813  0.25131364    -0.05800
C129        C  0.77864766  0.36792343  0.25057896    -0.32800
C130        C  0.76647841  0.39984408  0.24887137     0.36300
H131        H  0.69306574  0.37895297  0.24769896     0.16600
O132        O  0.71055286  0.31738885  0.25190861    -0.60300
H133        H  0.80263320  0.36527950  0.25128036     0.16600
O134        O  0.78530380  0.42646625  0.24787744    -0.60400
H135        H  0.78961612  0.43132035  0.27528267     0.43600
H136        H  0.70672965  0.31169781  0.22461151     0.43600
C137        C  0.37192707  0.50050060  0.07353030    -0.05500
C138        C  0.38934620  0.00128161  0.10788336    -0.32900
C139        C  0.37527845  0.00216713  0.14381992     0.36300
C140        C  0.34312318  0.50174932  0.14639692    -0.05800
C141        C  0.32648954  0.49994331  0.11227787    -0.32800
C142        C  0.34053724  0.49918309  0.07612883     0.36300
H143        H  0.41342099  0.00110180  0.10726388     0.16600
O144        O  0.39252501  0.00266721  0.17638053    -0.60300
H145        H  0.30242795  0.49904604  0.11353748     0.16600
O146        O  0.32321080  0.49760044  0.04372787    -0.60400
H147        H  0.31873086  0.47371974  0.04061521     0.43600
H148        H  0.39620428  0.02648577  0.18129415     0.43600
C149        C  0.37264986  0.50013257  0.43032924    -0.05500
C150        C  0.38771318  0.51154633  0.39722638    -0.32900
C151        C  0.37368137  0.51281493  0.36137817     0.36300
C152        C  0.34395642  0.50243273  0.35788543    -0.05800
C153        C  0.32893597  0.49060411  0.39077764    -0.32800
C154        C  0.34306709  0.48914490  0.42668659     0.36300
H155        H  0.41047495  0.52003587  0.39905936     0.16600
O156        O  0.38936046  0.52424224  0.33000928    -0.60300
H157        H  0.30619118  0.48211096  0.38864567     0.16600
O158        O  0.32779704  0.47653400  0.45775492    -0.60400
H159        H  0.33438320  0.95180223  0.45821194     0.43600
H160        H  0.38649656  0.54865004  0.32999062     0.43600
C161        C  0.23594788  0.16264372  0.24981166    -0.05500
C162        C  0.21799764  0.13451639  0.25505731    -0.32900
C163        C  0.23046022  0.10259235  0.25647633     0.36300
C164        C  0.26143062  0.09821022  0.25221088    -0.05800
C165        C  0.27936881  0.12635323  0.24714090    -0.32800
C166        C  0.26695574  0.15827539  0.24612753     0.36300
H167        H  0.19411993  0.13720374  0.25809432     0.16600
O168        O  0.21203381  0.07590570  0.26146987    -0.60300
H169        H  0.30322610  0.12368306  0.24382739     0.16600
O170        O  0.28538475  0.18491558  0.24079203    -0.60400
H171        H  0.29186958  0.19111293  0.26706062     0.43600
H172        H  0.21043090  0.07272684  0.28980254     0.43600
C173        C  0.26148494  0.41218791  0.25172630    -0.05500
C174        C  0.27970496  0.38374620  0.25122455    -0.32900
C175        C  0.26737473  0.35196696  0.25024842     0.36300
C176        C  0.23623582  0.34812112  0.24918424    -0.05800
C177        C  0.21803642  0.37655915  0.25007164    -0.32800
C178        C  0.23035409  0.40830887  0.25138192     0.36300
H179        H  0.30369458  0.38606503  0.25165103     0.16600
O180        O  0.28604992  0.32495038  0.24999129    -0.60300
H181        H  0.19404558  0.37426496  0.24969486     0.16600
O182        O  0.21166199  0.43527794  0.25277232    -0.60400
H183        H  0.20732428  0.44095636  0.22545477     0.43600
H184        H  0.28989149  0.31971911  0.27755380     0.43600
C185        C  0.12471503  0.25178998  0.06731814    -0.05500
C186        C  0.15574081  0.25597855  0.06840881    -0.32900
C187        C  0.17104186  0.25640673  0.10360164     0.36300
C188        C  0.15537312  0.25255373  0.13863860    -0.05800
C189        C  0.12457043  0.24767397  0.13755205    -0.32800
C190        C  0.10924740  0.24729436  0.10261138     0.36300
H191        H  0.16828774  0.25920528  0.04193743     0.16600
O192        O  0.20132690  0.26020801  0.10327571    -0.60300
H193        H  0.11207241  0.24423873  0.16404598     0.16600
O194        O  0.07918731  0.24174054  0.10359679    -0.60400
H195        H  0.07001200  0.26363710  0.10904298     0.43600
H196        H  0.20456582  0.28449237  0.10175098     0.43600
C197        C  0.12492577  0.25472300  0.42397691    -0.05500
C198        C  0.10942611  0.26496870  0.39068595    -0.32900
C199        C  0.12344464  0.26620951  0.35469600     0.36300
C200        C  0.15361715  0.25706962  0.35124792    -0.05800
C201        C  0.16921816  0.24694892  0.38442830    -0.32800
C202        C  0.15509289  0.24536292  0.42043765     0.36300
H203        H  0.08624885  0.27229458  0.39241997     0.16600
O204        O  0.10726115  0.27615865  0.32310750    -0.60300
H205        H  0.19236370  0.23952972  0.38239478     0.16600
O206        O  0.17090005  0.23393328  0.45167226    -0.60400
H207        H  0.16792110  0.20957606  0.45202413     0.43600
H208        H  0.10971364  0.30056648  0.32160274     0.43600
C209        C  0.87401055  0.25073280  0.07460052    -0.05500
C210        C  0.84438674  0.24003382  0.07706617    -0.32900
C211        C  0.82940239  0.23908471  0.11251061     0.36300
C212        C  0.84394550  0.24905521  0.14643034    -0.05800
C213        C  0.87345125  0.25999855  0.14397097    -0.32800
C214        C  0.88836001  0.26124698  0.10855256     0.36300
H215        H  0.83283598  0.23184827  0.05151742     0.16600
O216        O  0.80057923  0.22819748  0.11356940    -0.60300
H217        H  0.88497774  0.26811333  0.16957944     0.16600
O218        O  0.91682241  0.27326716  0.10758533    -0.60400
H219        H  0.91463651  0.29737461  0.10229087     0.43600
H220        H  0.80205452  0.20386610  0.11767910     0.43600
C221        C  0.87229042  0.25026301  0.43156893    -0.05500
C222        C  0.88814799  0.25682164  0.39732764    -0.32900
C223        C  0.87407260  0.25686712  0.36153040     0.36300
C224        C  0.84343064  0.25018662  0.35911281    -0.05800
C225        C  0.82730398  0.24427017  0.39322537    -0.32800
C226        C  0.84148125  0.24395897  0.42919248     0.36300
H227        H  0.91174530  0.26202148  0.39805650     0.16600
O228        O  0.89068372  0.26326651  0.32907994    -0.60300
H229        H  0.80370094  0.23915502  0.39200445     0.16600
O230        O  0.82500211  0.23695313  0.46156617    -0.60400
H231        H  0.82666482  0.21258053  0.46518864     0.43600
H232        H  0.88964163  0.28766483  0.32536176     0.43600
C233        C  0.96760085  0.24947599  0.50021458    -0.05500
C234        C  0.98216786  0.25630755  0.46509256    -0.32900
C235        C  0.01320412  0.25724019  0.46282210     0.36300
C236        C  0.03047120  0.25139115  0.49616227    -0.05800
C237        C  0.01584435  0.24432852  0.03115146    -0.32800
C238        C  0.98486491  0.24342874  0.03344178     0.36300
H239        H  0.96950945  0.26135832  0.43912648     0.16600
O240        O  0.02621460  0.26489720  0.42805918    -0.60300
H241        H  0.02840839  0.23923402  0.05715766     0.16600
O242        O  0.97190064  0.23556442  0.06817910    -0.60400
H243        H  0.97345257  0.25591693  0.08386606     0.43600
H244        H  0.02738170  0.24361169  0.41401887     0.43600
C245        C  0.88970265  0.25028692  0.53688076     0.80200
N246        N  0.91986417  0.24979690  0.53564120    -0.78100
C247        C  0.93460342  0.24939994  0.00152036     0.82700
N248        N  0.91880400  0.24947737  0.96831256    -0.78000
C249        C  0.88862499  0.24982480  0.96873968     0.82800
N250        N  0.87415820  0.25012766  0.50324012    -0.79800
C251        C  0.10893175  0.25354501  0.96149264     0.80200
N252        N  0.07872697  0.25321535  0.96182016    -0.78100
C253        C  0.06341062  0.25249604  0.99550513     0.82700
N254        N  0.07869314  0.25216167  0.52910968    -0.78000
C255        C  0.10881363  0.25238959  0.52970444     0.82800
N256        N  0.12390408  0.25314427  0.99561536    -0.79800
In257      In  0.30093869  0.50465738  0.75258591     1.36900
C258        C  0.27536156  0.44541537  0.75223450     0.77600
O259        O  0.30068346  0.00501340  0.68747949    -0.60900
O260        O  0.34157975  0.50178730  0.71578936    -0.51800
C261        C  0.27548884  0.06482740  0.75262999     0.70200
O262        O  0.26112095  0.03819464  0.75598093    -0.46600
C263        C  0.32847713  0.50356669  0.82035254     0.74900
O264        O  0.26061800  0.47214902  0.75316520    -0.58500
O265        O  0.34153053  0.51004191  0.78902745    -0.48600
O266        O  0.30316392  0.44925179  0.75154873    -0.54900
C267        C  0.32778289  0.50265236  0.68421656     0.85100
O268        O  0.30314285  0.06068805  0.74938039    -0.56800
O269        O  0.30204127  0.99790510  0.81686896    -0.60100
In270      In  0.19628111  0.25579058  0.74553623     1.36900
C271        C  0.22224988  0.31500238  0.74748671     0.77600
O272        O  0.19784358  0.25827147  0.68061970    -0.60900
O273        O  0.15629907  0.25057624  0.70790391    -0.51800
C274        C  0.22197356  0.19605156  0.74818719     0.70200
O275        O  0.23656897  0.22255183  0.74474357    -0.46600
C276        C  0.16888865  0.25714150  0.81342708     0.74900
O277        O  0.23683441  0.28821543  0.74604246    -0.58500
O278        O  0.15541485  0.26140009  0.78188587    -0.48600
O279        O  0.19444663  0.31128894  0.74742787    -0.54900
C280        C  0.17032718  0.25379990  0.67659698     0.85100
O281        O  0.19423309  0.20032746  0.75015287    -0.56800
O282        O  0.19653681  0.25250742  0.81005842    -0.60100
In283      In  0.69796804  0.99813144  0.74560280     1.36900
C284        C  0.72188357  0.43783637  0.74566345     0.77600
O285        O  0.69813816  0.99400746  0.81058376    -0.60900
O286        O  0.65554008  0.49785031  0.78121676    -0.51800
C287        C  0.72338412  0.05786130  0.74711168     0.70200
O288        O  0.73831527  0.03130131  0.74541701    -0.46600
C289        C  0.67109071  0.99912797  0.67727780     0.74900
O290        O  0.73668764  0.46418803  0.74850783    -0.58500
O291        O  0.65739435  0.99773221  0.70897205    -0.48600
O292        O  0.69434481  0.44242909  0.74165623    -0.54900
C293        C  0.67023109  0.99590048  0.81373665     0.85100
O294        O  0.69567710  0.05359902  0.74782630    -0.56800
O295        O  0.69902922  0.00029940  0.68046450    -0.60100
In296      In  0.80181190  0.24776453  0.75295900     1.36900
C297        C  0.77772050  0.18771076  0.75303626     0.77600
O298        O  0.80115979  0.24462005  0.68829261    -0.60900
O299        O  0.84257800  0.25174235  0.71571373    -0.51800
C300        C  0.77458435  0.30657967  0.75227328     0.70200
O301        O  0.76039689  0.27971853  0.75392597    -0.46600
C302        C  0.82829218  0.24900981  0.82133094     0.74900
O303        O  0.76247899  0.21403081  0.75056761    -0.58500
O304        O  0.84230452  0.24893869  0.78981519    -0.48600
O305        O  0.80532541  0.19233104  0.75598470    -0.54900
C306        C  0.82880632  0.24837015  0.68439793     0.85100
O307        O  0.80238715  0.30298084  0.75115320    -0.56800
O308        O  0.80040174  0.24786534  0.81786937    -0.60100
C309        C  0.38841550  0.49994224  0.96782114     0.80200
N310        N  0.41855575  0.50102907  0.96820708    -0.78100
C311        C  0.43380076  0.50168496  0.00183845     0.82700
N312        N  0.41838575  0.50144149  0.53554317    -0.78000
C313        C  0.38813815  0.50043126  0.53595526     0.82800
N314        N  0.37329020  0.49968888  0.00183941    -0.79800
C315        C  0.60892978  0.49865190  0.52936528     0.80200
N316        N  0.57876107  0.50040586  0.52945132    -0.78100
C317        C  0.56311047  0.50028006  0.99606027     0.82700
N318        N  0.57811042  0.49815694  0.96210832    -0.78000
C319        C  0.60833053  0.49621690  0.96124247     0.82800
N320        N  0.62354980  0.49655281  0.99509457    -0.79800
C321        C  0.46689314  0.50242722  0.00121118    -0.05500
C322        C  0.48177141  0.50792011  0.96598061    -0.32900
C323        C  0.51284898  0.50741326  0.96369157     0.36300
C324        C  0.53000743  0.50166229  0.99716774    -0.05800
C325        C  0.51617453  0.99599182  0.53276926    -0.32800
C326        C  0.48507693  0.99621278  0.53487746     0.36300
H327        H  0.46932030  0.51250837  0.93973865     0.16600
O328        O  0.52605559  0.51323526  0.92858854    -0.60300
H329        H  0.52857842  0.99115903  0.55899135     0.16600
O330        O  0.47178088  0.98961048  0.56974213    -0.60400
H331        H  0.47166022  0.01102689  0.58356242     0.43600
H332        H  0.52602526  0.49153357  0.91536654     0.43600
C333        C  0.62544548  0.99457214  0.92417835    -0.05500
C334        C  0.60800512  0.49823623  0.88911016    -0.32900
C335        C  0.62210434  0.49797581  0.85310541     0.36300
C336        C  0.65450529  0.99463538  0.85138862    -0.05800
C337        C  0.67051188  0.98818008  0.88540371    -0.32800
C338        C  0.65629616  0.98786266  0.92145949     0.36300
H339        H  0.58414992  0.50200418  0.88988973     0.16600
O340        O  0.60518870  0.50255539  0.82060375    -0.60300
H341        H  0.69423297  0.98341787  0.88413775     0.16600
O342        O  0.67297349  0.98120493  0.95369103    -0.59800
H343        H  0.67182548  0.95683554  0.95748589     0.43600
H344        H  0.59818900  0.48010598  0.81371820     0.43600
C345        C  0.65553919  0.99918484  0.63966066    -0.05500
C346        C  0.67148673  0.00502173  0.60541386    -0.32900
C347        C  0.65719917  0.00494349  0.56948709     0.36300
C348        C  0.62527806  0.49854025  0.56662315    -0.05800
C349        C  0.60938393  0.49297654  0.60104701    -0.32800
C350        C  0.62359582  0.49306078  0.63681416     0.36300
H351        H  0.69514304  0.00987287  0.60642009     0.16600
O352        O  0.67352461  0.01188982  0.53697047    -0.60300
H353        H  0.58567574  0.48839879  0.60045967     0.16600
O354        O  0.60702982  0.48710256  0.66941184    -0.60400
H355        H  0.59861449  0.50897857  0.67662822     0.43600
H356        H  0.68455311  0.99113089  0.53126407     0.43600
C357        C  0.76419959  0.15431370  0.75205705    -0.05500
C358        C  0.73327867  0.15148160  0.74792474    -0.32900
C359        C  0.71973603  0.12038435  0.74623908     0.36300
C360        C  0.73714450  0.09117591  0.74851213    -0.05800
C361        C  0.76809728  0.09399469  0.75254826    -0.32800
C362        C  0.78162978  0.12514324  0.75447961     0.36300
H363        H  0.71942168  0.17349731  0.74578013     0.16600
O364        O  0.68951402  0.11896964  0.74135509    -0.60300
H365        H  0.78193579  0.07195010  0.75438034     0.16600
O366        O  0.81195863  0.12666083  0.75805397    -0.60400
H367        H  0.81573958  0.12632533  0.78622571     0.43600
H368        H  0.68102476  0.12036084  0.76772592     0.43600
C369        C  0.73540293  0.40427320  0.74741830    -0.05500
C370        C  0.71702758  0.37614639  0.74837066    -0.32900
C371        C  0.72924997  0.34410762  0.75040383     0.36300
C372        C  0.76038168  0.33977597  0.75130681    -0.05800
C373        C  0.77863613  0.36790955  0.75056684    -0.32800
C374        C  0.76646874  0.39983110  0.74886364     0.36300
H375        H  0.69305431  0.37894605  0.74771120     0.16600
O376        O  0.71053790  0.31738067  0.75191725    -0.60300
H377        H  0.80262154  0.36526354  0.75126176     0.16600
O378        O  0.78529570  0.42645181  0.74786568    -0.60400
H379        H  0.78961240  0.43130504  0.77526988     0.43600
H380        H  0.70670997  0.31168914  0.72462141     0.43600
C381        C  0.37192844  0.50051439  0.57352903    -0.05500
C382        C  0.38935272  0.00126819  0.60787835    -0.32900
C383        C  0.37528617  0.00215611  0.64381584     0.36300
C384        C  0.34312380  0.50177139  0.64639494    -0.05800
C385        C  0.32649042  0.49996334  0.61227593    -0.32800
C386        C  0.34053844  0.49919971  0.57612721     0.36300
H387        H  0.41342745  0.00107634  0.60725764     0.16600
O388        O  0.39253380  0.00264374  0.67637595    -0.60300
H389        H  0.30242879  0.49906653  0.61353535     0.16600
O390        O  0.32321218  0.49761629  0.54372614    -0.60400
H391        H  0.31872877  0.47373604  0.54061722     0.43600
H392        H  0.39622340  0.02645974  0.68129263     0.43600
C393        C  0.37264889  0.50014004  0.93032929    -0.05500
C394        C  0.38771233  0.51155642  0.89722764    -0.32900
C395        C  0.37368110  0.51282652  0.86137896     0.36300
C396        C  0.34395632  0.50244416  0.85788463    -0.05800
C397        C  0.32893582  0.49061278  0.89077551    -0.32800
C398        C  0.34306655  0.48915142  0.92668474     0.36300
H399        H  0.41047394  0.52004636  0.89906177     0.16600
O400        O  0.38936076  0.52425497  0.83001112    -0.60300
H401        H  0.30619118  0.48211911  0.88864228     0.16600
O402        O  0.32779652  0.47653747  0.95775144    -0.60400
H403        H  0.33438374  0.95180133  0.95821160     0.43600
H404        H  0.38649675  0.54866275  0.82999348     0.43600
C405        C  0.23595768  0.16265461  0.74981346    -0.05500
C406        C  0.21800748  0.13452633  0.75505153    -0.32900
C407        C  0.23047057  0.10260256  0.75647063     0.36300
C408        C  0.26144161  0.09822131  0.75221189    -0.05800
C409        C  0.27937992  0.12636519  0.74714906    -0.32800
C410        C  0.26696621  0.15828732  0.74613650     0.36300
H411        H  0.19412924  0.13721281  0.75808355     0.16600
O412        O  0.21204406  0.07591523  0.76145855    -0.60300
H413        H  0.30323765  0.12369571  0.74384083     0.16600
O414        O  0.28539528  0.18492853  0.74080874    -0.60400
H415        H  0.29187725  0.19112278  0.76707957     0.43600
H416        H  0.21043841  0.07273430  0.78979054     0.43600
C417        C  0.26148871  0.41220262  0.75172719    -0.05500
C418        C  0.27970967  0.38376173  0.75121740    -0.32900
C419        C  0.26738032  0.35198169  0.75024856     0.36300
C420        C  0.23624116  0.34813408  0.74920054    -0.05800
C421        C  0.21804103  0.37657132  0.75009506    -0.32800
C422        C  0.23035787  0.40832184  0.75139759     0.36300
H423        H  0.30369927  0.38608180  0.75163236     0.16600
O424        O  0.28605648  0.32496609  0.74998290    -0.60300
H425        H  0.19405022  0.37427591  0.74972958     0.16600
O426        O  0.21166501  0.43528995  0.75279553    -0.60400
H427        H  0.20732010  0.44096788  0.72547992     0.43600
H428        H  0.28990511  0.31973455  0.77754370     0.43600
C429        C  0.12473167  0.25183235  0.56732414    -0.05500
C430        C  0.15575770  0.25601755  0.56841821    -0.32900
C431        C  0.17105625  0.25644524  0.60361291     0.36300
C432        C  0.15538490  0.25259299  0.63864806    -0.05800
C433        C  0.12458126  0.24772229  0.63755858    -0.32800
C434        C  0.10926041  0.24734528  0.60261670     0.36300
H435        H  0.16830689  0.25924001  0.54194809     0.16600
O436        O  0.20134149  0.26024478  0.60329047    -0.60300
H437        H  0.11208074  0.24429109  0.66405135     0.16600
O438        O  0.07919846  0.24180298  0.60360105    -0.60400
H439        H  0.07002895  0.26370599  0.60902906     0.43600
H440        H  0.20458160  0.28452910  0.60177112     0.43600
C441        C  0.12490580  0.25468187  0.92397410    -0.05500
C442        C  0.10941013  0.26493156  0.89068172    -0.32900
C443        C  0.12343338  0.26617826  0.85469498     0.36300
C444        C  0.15360727  0.25704227  0.85125190    -0.05800
C445        C  0.16920305  0.24691236  0.88443265    -0.32800
C446        C  0.15507266  0.24531870  0.92043826     0.36300
H447        H  0.08623280  0.27225779  0.89241224     0.16600
O448        O  0.10725332  0.27613026  0.82310474    -0.60300
H449        H  0.19234889  0.23949356  0.88240230     0.16600
O450        O  0.17087539  0.23388120  0.95167300    -0.60400
H451        H  0.16789007  0.20952508  0.95202187     0.43600
H452        H  0.10970197  0.30053893  0.82160705     0.43600
C453        C  0.87404076  0.25064587  0.57461959    -0.05500
C454        C  0.84436114  0.24012664  0.57704272    -0.32900
C455        C  0.82936147  0.23919596  0.61247746     0.36300
C456        C  0.84394606  0.24899771  0.64643538    -0.05800
C457        C  0.87350815  0.25975843  0.64402251    -0.32800
C458        C  0.88843334  0.26099300  0.60861511     0.36300
H459        H  0.83277135  0.23207420  0.55146516     0.16600
O460        O  0.80047952  0.22849869  0.61348681    -0.60300
H461        H  0.88507028  0.26774123  0.66966179     0.16600
O462        O  0.91695827  0.27283122  0.60770770    -0.60400
H463        H  0.91489716  0.29697107  0.60254091     0.43600
H464        H  0.80182413  0.20414954  0.61751709     0.43600
C465        C  0.87225916  0.25032693  0.93156113    -0.05500
C466        C  0.88810139  0.25695915  0.89732769    -0.32900
C467        C  0.87402429  0.25699951  0.86153164     0.36300
C468        C  0.84339721  0.25023708  0.85910878    -0.05800
C469        C  0.82728447  0.24424917  0.89321587    -0.32800
C470        C  0.84146380  0.24394457  0.92918108     0.36300
H471        H  0.91168711  0.26222193  0.89806337     0.16600
O472        O  0.89061967  0.26347290  0.82908707    -0.60300
H473        H  0.80369311  0.23906995  0.89199090     0.16600
O474        O  0.82500286  0.23686177  0.96154839    -0.60400
H475        H  0.82673136  0.21249230  0.96514905     0.43600
H476        H  0.88952256  0.28787148  0.82539717     0.43600
C477        C  0.96757176  0.24955433  0.00021282    -0.05500
C478        C  0.98214607  0.25627327  0.96506718    -0.32900
C479        C  0.01318334  0.25718009  0.96279676     0.36300
C480        C  0.03044615  0.25142175  0.99616179    -0.05800
C481        C  0.01587748  0.24418053  0.53112554    -0.32800
C482        C  0.98489850  0.24325669  0.53341633     0.36300
H483        H  0.96949325  0.26124824  0.93907801     0.16600
O484        O  0.02619889  0.26471295  0.92800131    -0.60300
H485        H  0.02844818  0.23901043  0.55710762     0.16600
O486        O  0.97193835  0.23527249  0.56812006    -0.60400
H487        H  0.97352634  0.25555562  0.58392062     0.43600
H488        H  0.02736459  0.24337718  0.91406317     0.43600
C489        C  0.88994557  0.74850264  0.03667769     0.80200
N490        N  0.92005561  0.75061762  0.03555339    -0.78100
C491        C  0.93485592  0.75285911  0.50150172     0.82700
N492        N  0.91913211  0.75284175  0.46820511    -0.78000
C493        C  0.88901587  0.75082062  0.46848358     0.82800
N494        N  0.87451399  0.74874919  0.00292485    -0.79800
C495        C  0.10920780  0.75712384  0.46153663     0.80200
N496        N  0.07900852  0.75785406  0.46196680    -0.78100
C497        C  0.06371213  0.75755685  0.49568028     0.82700
N498        N  0.07901649  0.75667220  0.02926807    -0.78000
C499        C  0.10915695  0.75586598  0.02977612     0.82800
N500        N  0.12421131  0.75613577  0.49563459    -0.79800
In501      In  0.30169745  0.00508982  0.25246517     1.36900
C502        C  0.27620739  0.94572823  0.25162335     0.77600
O503        O  0.29987167  0.50440478  0.18765532    -0.60900
O504        O  0.34236099  0.00244011  0.21566963    -0.51800
C505        C  0.27502758  0.56443313  0.25267112     0.70200
O506        O  0.26045411  0.53788601  0.25529755    -0.46600
C507        C  0.32939642  0.00368876  0.32027727     0.74900
O508        O  0.26142595  0.97242254  0.25296278    -0.58500
O509        O  0.34233213  0.01053803  0.28897717    -0.48600
O510        O  0.30399250  0.94966186  0.25065176    -0.54900
C511        C  0.32859548  0.00327545  0.18406701     0.85100
O512        O  0.30270737  0.56015378  0.25013933    -0.56800
O513        O  0.30107669  0.49793902  0.31697395    -0.60100
In514      In  0.19703861  0.75596545  0.24560264     1.36900
C515        C  0.22324886  0.81513054  0.24738666     0.77600
O516        O  0.19878787  0.75799141  0.18056328    -0.60900
O517        O  0.15708554  0.75143648  0.20781554    -0.51800
C518        C  0.22240337  0.69603870  0.24854431     0.70200
O519        O  0.23718522  0.72244519  0.24553080    -0.46600
C520        C  0.16919040  0.75782993  0.31328677     0.74900
O521        O  0.23777809  0.78828847  0.24627732    -0.58500
O522        O  0.15591565  0.76196571  0.28159029    -0.48600
O523        O  0.19545062  0.81146442  0.24711277    -0.54900
C524        C  0.17116979  0.75428908  0.17650843     0.85100
O525        O  0.19466787  0.70050617  0.25002579    -0.56800
O526        O  0.19681685  0.75290759  0.31016132    -0.60100
In527      In  0.69678733  0.49787035  0.24493353     1.36900
C528        C  0.72289019  0.93802374  0.24568050     0.77600
O529        O  0.69690213  0.49471966  0.30992247    -0.60900
O530        O  0.65687284  0.99918093  0.28204044    -0.51800
C531        C  0.72213063  0.55770718  0.24609118     0.70200
O532        O  0.73705041  0.53116867  0.24390390    -0.46600
C533        C  0.66999758  0.49854462  0.17658989     0.74900
O534        O  0.73782932  0.96431108  0.24822571    -0.58500
O535        O  0.65624299  0.49786258  0.20826606    -0.48600
O536        O  0.69531967  0.94275250  0.24221116    -0.54900
C537        C  0.66895114  0.49554035  0.31298271     0.85100
O538        O  0.69443383  0.55339522  0.24733101    -0.56800
O539        O  0.69794958  0.49920457  0.17980074    -0.60100
In540      In  0.80161269  0.74724827  0.25263975     1.36900
C541        C  0.77685037  0.68746162  0.25206554     0.77600
O542        O  0.80064341  0.75062357  0.18788752    -0.60900
O543        O  0.84203824  0.74193242  0.21517788    -0.51800
C544        C  0.77495793  0.80636268  0.25239075     0.70200
O545        O  0.76056961  0.77964455  0.25492217    -0.46600
C546        C  0.82843960  0.74974068  0.32093235     0.74900
O547        O  0.76183311  0.71395886  0.24971870    -0.58500
O548        O  0.84180959  0.75429711  0.28934755    -0.48600
O549        O  0.80446133  0.69181765  0.25514863    -0.54900
C550        C  0.82821404  0.74601020  0.18387404     0.85100
O551        O  0.80273020  0.80248809  0.25032778    -0.56800
O552        O  0.80106819  0.74378737  0.31752463    -0.60100
C553        C  0.38954443  0.99951704  0.46772175     0.80200
N554        N  0.41969706  0.00040266  0.46815545    -0.78100
C555        C  0.43490360  0.00117212  0.50182754     0.82700
N556        N  0.41943805  0.00128944  0.03551496    -0.78000
C557        C  0.38918290  0.00047880  0.03587125     0.82800
N558        N  0.37438363  0.99958317  0.50171822    -0.79800
C559        C  0.61000981  0.99871349  0.03001377     0.80200
N560        N  0.57982482  0.00023201  0.03003465    -0.78100
C561        C  0.56423213  0.99995663  0.49658081     0.82700
N562        N  0.57929353  0.99794712  0.46267849    -0.78000
C563        C  0.60951399  0.99622041  0.46188538     0.82800
N564        N  0.62469720  0.99668199  0.49576238    -0.79800
C565        C  0.46800296  0.00179442  0.50129579    -0.05500
C566        C  0.48295889  0.00748325  0.46616471    -0.32900
C567        C  0.51404407  0.00704469  0.46400997     0.36300
C568        C  0.53112712  0.00118295  0.49753635    -0.05800
C569        C  0.51513233  0.49674283  0.03251767    -0.32800
C570        C  0.48404144  0.49708332  0.03477365     0.36300
H571        H  0.47056118  0.01221249  0.43991122     0.16600
O572        O  0.52732912  0.01307135  0.42900036    -0.60300
H573        H  0.52758943  0.49205805  0.05873061     0.16600
O574        O  0.47082693  0.49089809  0.06979162    -0.60400
H575        H  0.47062593  0.51251451  0.08319062     0.43600
H576        H  0.52748175  0.99140747  0.41569345     0.43600
C577        C  0.62425703  0.49431880  0.42350004    -0.05500
C578        C  0.60945631  0.00026970  0.38990135    -0.32900
C579        C  0.62359080  0.00017736  0.35393173     0.36300
C580        C  0.65323984  0.49415088  0.35063995    -0.05800
C581        C  0.66950196  0.48934229  0.38477623    -0.32800
C582        C  0.65534938  0.48912980  0.42085727     0.36300
H583        H  0.58579104  0.00534612  0.39077775     0.16600
O584        O  0.60695930  0.00662590  0.32157978    -0.60300
H585        H  0.69339815  0.48586203  0.38359829     0.16600
O586        O  0.67235775  0.48422308  0.45318466    -0.59800
H587        H  0.67259931  0.45987680  0.45754158     0.43600
H588        H  0.59884005  0.98485170  0.31392760     0.43600
C589        C  0.65449036  0.49847045  0.13896680    -0.05500
C590        C  0.67052325  0.50394036  0.10471596    -0.32900
C591        C  0.65623501  0.50405206  0.06879574     0.36300
C592        C  0.62632752  0.99891347  0.06730125    -0.05800
C593        C  0.61049440  0.99315650  0.10173101    -0.32800
C594        C  0.62470809  0.99342064  0.13750348     0.36300
H595        H  0.69423720  0.50844316  0.10571999     0.16600
O596        O  0.67265134  0.51070281  0.03627850    -0.60300
H597        H  0.58684286  0.98823921  0.10113466     0.16600
O598        O  0.60821030  0.98721468  0.17009840    -0.60400
H599        H  0.59957738  0.00897603  0.17735616     0.43600
H600        H  0.68365589  0.48987216  0.03084239     0.43600
C601        C  0.76316389  0.65412315  0.25097633    -0.05500
C602        C  0.73219892  0.65138158  0.24730756    -0.32900
C603        C  0.71855771  0.62029994  0.24583434     0.36300
C604        C  0.73592973  0.59102986  0.24751744    -0.05800
C605        C  0.76691837  0.59377279  0.25112380    -0.32800
C606        C  0.78052638  0.62487374  0.25313425     0.36300
H607        H  0.71838081  0.67344943  0.24554936     0.16600
O608        O  0.68824840  0.61896189  0.24193005    -0.60300
H609        H  0.78073005  0.57169270  0.25266984     0.16600
O610        O  0.81086575  0.62625889  0.25666144    -0.60400
H611        H  0.81465824  0.62614144  0.28483258     0.43600
H612        H  0.68028886  0.62011125  0.26859548     0.43600
C613        C  0.73628446  0.90437262  0.24730294    -0.05500
C614        C  0.71779051  0.87634082  0.24786926    -0.32900
C615        C  0.72985163  0.84422979  0.25001767     0.36300
C616        C  0.76095443  0.83969498  0.25141615    -0.05800
C617        C  0.77933819  0.86773094  0.25101412    -0.32800
C618        C  0.76732113  0.89974025  0.24920189     0.36300
H619        H  0.69383728  0.87926774  0.24683020     0.16600
O620        O  0.71099600  0.81761892  0.25106985    -0.60300
H621        H  0.80330096  0.86493218  0.25210168     0.16600
O622        O  0.78626871  0.92625935  0.24863981    -0.60400
H623        H  0.79020769  0.93111249  0.27614123     0.43600
H624        H  0.70774212  0.81176883  0.22369320     0.43600
C625        C  0.37290874  0.00085781  0.07341868    -0.05500
C626        C  0.38839641  0.50217685  0.10789474    -0.32900
C627        C  0.37437814  0.50293909  0.14385324     0.36300
C628        C  0.34398782  0.00236161  0.14624668    -0.05800
C629        C  0.32738453  0.00185367  0.11201613    -0.32800
C630        C  0.34148312  0.00101966  0.07588887     0.36300
H631        H  0.41244729  0.50317662  0.10717380     0.16600
O632        O  0.39163486  0.50484733  0.17631147    -0.60300
H633        H  0.30330198  0.00209036  0.11316335     0.16600
O634        O  0.32418907  0.00094204  0.04337926    -0.60400
H635        H  0.31849988  0.97744004  0.03984451     0.43600
H636        H  0.39428061  0.52891655  0.18074311     0.43600
C637        C  0.37377661  0.99975487  0.43020690    -0.05500
C638        C  0.38872382  0.01150704  0.39717528    -0.32900
C639        C  0.37462810  0.01293336  0.36135164     0.36300
C640        C  0.34495760  0.00235509  0.35779693    -0.05800
C641        C  0.33006953  0.99015845  0.39062343    -0.32800
C642        C  0.34425603  0.98857688  0.42651139     0.36300
H643        H  0.41142854  0.02017258  0.39906936     0.16600
O644        O  0.39018983  0.02472056  0.33006470    -0.60300
H645        H  0.30737291  0.98151622  0.38846253     0.16600
O646        O  0.32908828  0.97571475  0.45752986    -0.60400
H647        H  0.33293540  0.45258130  0.45857177     0.43600
H648        H  0.38712245  0.04909649  0.33025951     0.43600
C649        C  0.23616866  0.66253377  0.25014676    -0.05500
C650        C  0.21806108  0.63457881  0.25576985    -0.32900
C651        C  0.23030439  0.60255148  0.25706935     0.36300
C652        C  0.26119408  0.59790436  0.25228396    -0.05800
C653        C  0.27928828  0.62586332  0.24682251    -0.32800
C654        C  0.26710526  0.65788398  0.24593980     0.36300
H655        H  0.19423722  0.63748844  0.25922850     0.16600
O656        O  0.21175671  0.57603691  0.26257456    -0.60300
H657        H  0.30308905  0.62297174  0.24307765     0.16600
O658        O  0.28567247  0.68433517  0.24013997    -0.60400
H659        H  0.29263505  0.69043019  0.26623399     0.43600
H660        H  0.21056322  0.57289650  0.29094582     0.43600
C661        C  0.26239766  0.91245680  0.25110546    -0.05500
C662        C  0.28066206  0.88404293  0.25044833    -0.32900
C663        C  0.26838013  0.85221704  0.24967818     0.36300
C664        C  0.23724288  0.84829084  0.24894468    -0.05800
C665        C  0.21900876  0.87670344  0.24995644    -0.32800
C666        C  0.23127378  0.90848940  0.25108894     0.36300
H667        H  0.30464870  0.88642145  0.25063953     0.16600
O668        O  0.28709650  0.82523920  0.24928440    -0.60300
H669        H  0.19501949  0.87436227  0.24983944     0.16600
O670        O  0.21253378  0.93540856  0.25265288    -0.60400
H671        H  0.20806650  0.94110298  0.22537522     0.43600
H672        H  0.29100072  0.81996149  0.27682064     0.43600
C673        C  0.12518501  0.75462838  0.06734973    -0.05500
C674        C  0.15637421  0.75726345  0.06831491    -0.32900
C675        C  0.17180458  0.75691932  0.10345467     0.36300
C676        C  0.15611811  0.75370850  0.13856337    -0.05800
C677        C  0.12512924  0.75041379  0.13759037    -0.32800
C678        C  0.10967008  0.75098131  0.10272955     0.36300
H679        H  0.16895810  0.75988842  0.04178767     0.16600
O680        O  0.20220923  0.75936650  0.10300914    -0.60300
H681        H  0.11257145  0.74764335  0.16413662     0.16600
O682        O  0.07936668  0.74737097  0.10389835    -0.60400
H683        H  0.07137165  0.76985922  0.10917504     0.43600
H684        H  0.20631344  0.78347900  0.10138900     0.43600
C685        C  0.12514264  0.75752376  0.42392027    -0.05500
C686        C  0.10966606  0.76726548  0.39038679    -0.32900
C687        C  0.12366031  0.76774108  0.35432820     0.36300
C688        C  0.15378068  0.75830290  0.35105192    -0.05800
C689        C  0.16932746  0.74866578  0.38445183    -0.32800
C690        C  0.15526111  0.74790890  0.42052280     0.36300
H691        H  0.08652532  0.77477227  0.39196991     0.16600
O692        O  0.10751260  0.77725029  0.32253099    -0.60300
H693        H  0.19244112  0.74109046  0.38259045     0.16600
O694        O  0.17114711  0.73719128  0.45201512    -0.60400
H695        H  0.16821158  0.71283793  0.45309559     0.43600
H696        H  0.10999051  0.80163389  0.32054599     0.43600
C697        C  0.87411931  0.74665089  0.07439155    -0.05500
C698        C  0.84331357  0.75274258  0.07599666    -0.32900
C699        C  0.82794512  0.75218463  0.11120108     0.36300
C700        C  0.84333906  0.74562971  0.14586678    -0.05800
C701        C  0.87394274  0.73891392  0.14425979    -0.32800
C702        C  0.88934410  0.73940939  0.10915231     0.36300
H703        H  0.83100386  0.75840340  0.04991077     0.16600
O704        O  0.79800681  0.75885651  0.11133146    -0.60300
H705        H  0.88619042  0.73334662  0.17043372     0.16600
O706        O  0.91913371  0.73186576  0.10925150    -0.60400
H707        H  0.92895272  0.75132240  0.12085705     0.43600
H708        H  0.78834346  0.73716448  0.10702695     0.43600
C709        C  0.87265114  0.75113178  0.43123464    -0.05500
C710        C  0.88794586  0.75998416  0.39723278    -0.32900
C711        C  0.87380556  0.75999028  0.36141697     0.36300
C712        C  0.84365563  0.75098541  0.35873527    -0.05800
C713        C  0.82813818  0.74253434  0.39263256    -0.32800
C714        C  0.84238487  0.74226989  0.42856429     0.36300
H715        H  0.91114921  0.76699165  0.39817373     0.16600
O716        O  0.88994806  0.76838574  0.32917618    -0.60300
H717        H  0.80495646  0.73548452  0.39126924     0.16600
O718        O  0.82652479  0.73279719  0.46062172    -0.60400
H719        H  0.82961432  0.70847886  0.46289153     0.43600
H720        H  0.88794679  0.79282124  0.32670945     0.43600
C721        C  0.96780130  0.75494198  0.50031632    -0.05500
C722        C  0.98275090  0.75054585  0.46504008    -0.32900
C723        C  0.01377767  0.75159673  0.46282318     0.36300
C724        C  0.03070434  0.75736048  0.49630723    -0.05800
C725        C  0.01572426  0.76211036  0.03148061    -0.32800
C726        C  0.98473644  0.76109667  0.03368865     0.36300
H727        H  0.97042874  0.74576414  0.43889202     0.16600
O728        O  0.02714402  0.74667700  0.42772149    -0.60300
H729        H  0.02800667  0.76680454  0.05766502     0.16600
O730        O  0.97144631  0.76622618  0.06876667    -0.60400
H731        H  0.96753941  0.79043806  0.06977384     0.43600
H732        H  0.02965494  0.72230079  0.42567324     0.43600
C733        C  0.88995094  0.74852389  0.53667415     0.80200
N734        N  0.92006042  0.75064641  0.53554737    -0.78100
C735        C  0.93485371  0.75282717  0.00150918     0.82700
N736        N  0.91913077  0.75281481  0.96821150    -0.78000
C737        C  0.88901404  0.75080055  0.96848755     0.82800
N738        N  0.87451785  0.74876593  0.50292221    -0.79800
C739        C  0.10920889  0.75711794  0.96153876     0.80200
N740        N  0.07900940  0.75784244  0.96197001    -0.78100
C741        C  0.06371356  0.75753852  0.99568399     0.82700
N742        N  0.07901354  0.75669202  0.52926533    -0.78000
C743        C  0.10915399  0.75588001  0.52977446     0.82800
N744        N  0.12421334  0.75612868  0.99563586    -0.79800
In745      In  0.30170695  0.00509930  0.75246414     1.36900
C746        C  0.27621359  0.94573921  0.75162100     0.77600
O747        O  0.29987218  0.50442614  0.68765331    -0.60900
O748        O  0.34237003  0.00244366  0.71566737    -0.51800
C749        C  0.27502638  0.56444945  0.75267029     0.70200
O750        O  0.26045352  0.53790178  0.75529489    -0.46600
C751        C  0.32940476  0.00369245  0.82027728     0.74900
O752        O  0.26143373  0.97243427  0.75296883    -0.58500
O753        O  0.34234064  0.01054755  0.78897890    -0.48600
O754        O  0.30399874  0.94967132  0.75064146    -0.54900
C755        C  0.32860417  0.00328272  0.68406503     0.85100
O756        O  0.30270637  0.56017112  0.75014028    -0.56800
O757        O  0.30107733  0.49795106  0.81697156    -0.60100
In758      In  0.19703519  0.75598032  0.74560247     1.36900
C759        C  0.22324783  0.81514469  0.74738509     0.77600
O760        O  0.19878299  0.75800344  0.68056323    -0.60900
O761        O  0.15708057  0.75145296  0.70781637    -0.51800
C762        C  0.22240000  0.69605374  0.74854442     0.70200
O763        O  0.23718174  0.72246028  0.74553080    -0.46600
C764        C  0.16918909  0.75784321  0.81328792     0.74900
O765        O  0.23777576  0.78830192  0.74627279    -0.58500
O766        O  0.15591362  0.76198191  0.78159239    -0.48600
O767        O  0.19544940  0.81147983  0.74711491    -0.54900
C768        C  0.17116463  0.75430332  0.67650885     0.85100
O769        O  0.19466446  0.70052098  0.75002576    -0.56800
O770        O  0.19681519  0.75291937  0.81016083    -0.60100
In771      In  0.69678350  0.49786160  0.74493722     1.36900
C772        C  0.72287945  0.93800364  0.74568157     0.77600
O773        O  0.69689744  0.49470575  0.80992566    -0.60900
O774        O  0.65685637  0.99915975  0.78204515    -0.51800
C775        C  0.72212869  0.55769749  0.74609611     0.70200
O776        O  0.73704752  0.53115855  0.74390490    -0.46600
C777        C  0.66999506  0.49853505  0.67659279     0.74900
O778        O  0.73781606  0.96429258  0.74822856    -0.58500
O779        O  0.65623991  0.49784867  0.70826842    -0.48600
O780        O  0.69530849  0.94272951  0.74221310    -0.54900
C781        C  0.66894647  0.49553263  0.81298514     0.85100
O782        O  0.69443183  0.55338639  0.74733941    -0.56800
O783        O  0.69794685  0.49919940  0.67980473    -0.60100
In784      In  0.80161839  0.74723567  0.75263817     1.36900
C785        C  0.77685417  0.68744958  0.75206696     0.77600
O786        O  0.80064998  0.75060878  0.68788585    -0.60900
O787        O  0.84204543  0.74192416  0.71517681    -0.51800
C788        C  0.77495979  0.80634812  0.75238473     0.70200
O789        O  0.76057339  0.77962864  0.75491298    -0.46600
C790        C  0.82844317  0.74972949  0.82093262     0.74900
O791        O  0.76183765  0.71394745  0.74972389    -0.58500
O792        O  0.84181430  0.75428575  0.78934863    -0.48600
O793        O  0.80446578  0.69180450  0.75514400    -0.54900
C794        C  0.82822132  0.74600068  0.68387269     0.85100
O795        O  0.80273259  0.80247616  0.75032705    -0.56800
O796        O  0.80107199  0.74377605  0.81752309    -0.60100
C797        C  0.38954437  0.99951583  0.96772762     0.80200
N798        N  0.41969682  0.00040242  0.96816433    -0.78100
C799        C  0.43490143  0.00117329  0.00183769     0.82700
N800        N  0.41944188  0.00128814  0.53550633    -0.78000
C801        C  0.38918670  0.00047867  0.53586544     0.82800
N802        N  0.37438157  0.99958224  0.00172268    -0.79800
C803        C  0.61001110  0.99870775  0.53000562     0.80200
N804        N  0.57982615  0.00022323  0.53002336    -0.78100
C805        C  0.56422888  0.99996274  0.99659361     0.82700
N806        N  0.57928795  0.99794727  0.96269038    -0.78000
C807        C  0.60950794  0.99621722  0.96189426     0.82800
N808        N  0.62469344  0.99668172  0.99576927    -0.79800
C809        C  0.46800049  0.00179827  0.00130837    -0.05500
C810        C  0.48295656  0.00749156  0.96617857    -0.32900
C811        C  0.51404147  0.00705454  0.96402449     0.36300
C812        C  0.53112423  0.00119049  0.99755057    -0.05800
C813        C  0.51513425  0.49673792  0.53251533    -0.32800
C814        C  0.48404334  0.49707968  0.53477148     0.36300
H815        H  0.47055917  0.01222261  0.93992526     0.16600
O816        O  0.52732658  0.01308439  0.92901556    -0.60300
H817        H  0.52759111  0.49205779  0.55872935     0.16600
O818        O  0.47082875  0.49090090  0.56979077    -0.60400
H819        H  0.47062713  0.51252021  0.58318389     0.43600
H820        H  0.52747730  0.99142235  0.91570480     0.43600
C821        C  0.62425155  0.49431289  0.92350104    -0.05500
C822        C  0.60944587  0.00026303  0.88991058    -0.32900
C823        C  0.62357787  0.00016544  0.85393955     0.36300
C824        C  0.65323440  0.49414297  0.85064162    -0.05800
C825        C  0.66949392  0.48931435  0.88477656    -0.32800
C826        C  0.65534096  0.48910203  0.92085734     0.36300
H827        H  0.58578196  0.00534716  0.89078944     0.16600
O828        O  0.60694591  0.00661889  0.82158933    -0.60300
H829        H  0.69338820  0.48581772  0.88359766     0.16600
O830        O  0.67234594  0.48417273  0.95318356    -0.59800
H831        H  0.67256697  0.45982574  0.95753584     0.43600
H832        H  0.59882087  0.98484699  0.81393821     0.43600
C833        C  0.65448877  0.49846116  0.63896905    -0.05500
C834        C  0.67052258  0.50393193  0.60471918    -0.32900
C835        C  0.65623554  0.50404391  0.56879823     0.36300
C836        C  0.62632575  0.99890434  0.56729533    -0.05800
C837        C  0.61049187  0.99313092  0.60172085    -0.32800
C838        C  0.62470236  0.99339170  0.63749556     0.36300
H839        H  0.69423643  0.50843508  0.60572448     0.16600
O840        O  0.67265304  0.51069538  0.53628223    -0.60300
H841        H  0.58684220  0.98820333  0.60111922     0.16600
O842        O  0.60820380  0.98717089  0.67008606    -0.60400
H843        H  0.59956362  0.00892704  0.67735040     0.43600
H844        H  0.68366030  0.48986600  0.53084859     0.43600
C845        C  0.76316599  0.65411174  0.75098003    -0.05500
C846        C  0.73220014  0.65137161  0.74732074    -0.32900
C847        C  0.71855759  0.62029058  0.74584820     0.36300
C848        C  0.73592897  0.59101967  0.74752270    -0.05800
C849        C  0.76691834  0.59376123  0.75112041    -0.32800
C850        C  0.78052772  0.62486149  0.75313013     0.36300
H851        H  0.71838243  0.67344011  0.74556905     0.16600
O852        O  0.68824751  0.61895404  0.74195282    -0.60300
H853        H  0.78072967  0.57168058  0.75265980     0.16600
O854        O  0.81086778  0.62624517  0.75664822    -0.60400
H855        H  0.81466538  0.62612506  0.78481820     0.43600
H856        H  0.68029280  0.62009973  0.76862094     0.43600
C857        C  0.73627705  0.90435395  0.74730071    -0.05500
C858        C  0.71778602  0.87631972  0.74785830    -0.32900
C859        C  0.72985024  0.84420999  0.75000418     0.36300
C860        C  0.76095331  0.83967893  0.75140908    -0.05800
C861        C  0.77933419  0.86771719  0.75101473    -0.32800
C862        C  0.76731400  0.89972520  0.74920515     0.36300
H863        H  0.69383261  0.87924366  0.74681450     0.16600
O864        O  0.71099723  0.81759666  0.75104797    -0.60300
H865        H  0.80329710  0.86492125  0.75210736     0.16600
O866        O  0.78625892  0.92624675  0.74865257    -0.60400
H867        H  0.79019230  0.93109763  0.77615588     0.43600
H868        H  0.70774835  0.81174862  0.72366968     0.43600
C869        C  0.37291408  0.00085780  0.57341418    -0.05500
C870        C  0.38839746  0.50219504  0.60789333    -0.32900
C871        C  0.37437875  0.50296199  0.64385143     0.36300
C872        C  0.34399556  0.00236571  0.64624395    -0.05800
C873        C  0.32739120  0.00186990  0.61201388    -0.32800
C874        C  0.34148848  0.00103436  0.57588584     0.36300
H875        H  0.41244831  0.50319432  0.60717252     0.16600
O876        O  0.39163504  0.50487536  0.67630953    -0.60300
H877        H  0.30330868  0.00211835  0.61316199     0.16600
O878        O  0.32419335  0.00097135  0.54337693    -0.60400
H879        H  0.31849276  0.97747334  0.53983829     0.43600
H880        H  0.39427823  0.52894539  0.68073822     0.43600
C881        C  0.37377920  0.99975318  0.93021086    -0.05500
C882        C  0.38872910  0.01150403  0.89718054    -0.32900
C883        C  0.37463574  0.01293089  0.86135531     0.36300
C884        C  0.34496467  0.00235540  0.85779786    -0.05800
C885        C  0.33007433  0.99015882  0.89062276    -0.32800
C886        C  0.34425867  0.98857603  0.92651212     0.36300
H887        H  0.41143421  0.02016807  0.89907677     0.16600
O888        O  0.39020050  0.02471510  0.83006943    -0.60300
H889        H  0.30737743  0.98151805  0.88845968     0.16600
O890        O  0.32908876  0.97571375  0.95752878    -0.60400
H891        H  0.33293564  0.45258499  0.95856590     0.43600
H892        H  0.38713727  0.04909172  0.83026438     0.43600
C893        C  0.23616566  0.66254907  0.75014697    -0.05500
C894        C  0.21805858  0.63459378  0.75577039    -0.32900
C895        C  0.23030241  0.60256666  0.75706911     0.36300
C896        C  0.26119213  0.59792025  0.75228316    -0.05800
C897        C  0.27928580  0.62587958  0.74682137    -0.32800
C898        C  0.26710228  0.65789997  0.74593928     0.36300
H899        H  0.19423472  0.63750296  0.75922964     0.16600
O900        O  0.21175526  0.57605162  0.76257398    -0.60300
H901        H  0.30308649  0.62298852  0.74307584     0.16600
O902        O  0.28566906  0.68435159  0.74013958    -0.60400
H903        H  0.29263210  0.69044622  0.76623340     0.43600
H904        H  0.21056228  0.57291057  0.79094522     0.43600
C905        C  0.26240207  0.91246859  0.75110284    -0.05500
C906        C  0.28066490  0.88405365  0.75043855    -0.32900
C907        C  0.26838124  0.85222855  0.74966866     0.36300
C908        C  0.23724363  0.84830422  0.74894240    -0.05800
C909        C  0.21901112  0.87671789  0.74996084    -0.32800
C910        C  0.23127797  0.90850304  0.75109338     0.36300
H911        H  0.30465175  0.88643068  0.75062411     0.16600
O912        O  0.28709621  0.82524964  0.74926772    -0.60300
H913        H  0.19502174  0.87437819  0.74984947     0.16600
O914        O  0.21253956  0.93542321  0.75266468    -0.60400
H915        H  0.20806788  0.94111946  0.72538875     0.43600
H916        H  0.29100493  0.81997032  0.77680246     0.43600
C917        C  0.12518104  0.75464328  0.56734887    -0.05500
C918        C  0.15637055  0.75727327  0.56831479    -0.32900
C919        C  0.17180025  0.75692928  0.60345501     0.36300
C920        C  0.15611289  0.75372302  0.63856362    -0.05800
C921        C  0.12512349  0.75043368  0.63759003    -0.32800
C922        C  0.10966489  0.75100184  0.60272859     0.36300
H923        H  0.16895528  0.75989427  0.54178769     0.16600
O924        O  0.20220520  0.75937229  0.60301001    -0.60300
H925        H  0.11256492  0.74766731  0.66413631     0.16600
O926        O  0.07936075  0.74739806  0.60389667    -0.60400
H927        H  0.07136941  0.76988869  0.60916894     0.43600
H928        H  0.20631210  0.78348411  0.60138812     0.43600
C929        C  0.12514328  0.75752475  0.92392238    -0.05500
C930        C  0.10966648  0.76727198  0.89039128    -0.32900
C931        C  0.12366023  0.76775203  0.85433238     0.36300
C932        C  0.15378044  0.75831379  0.85105375    -0.05800
C933        C  0.16932770  0.74867241  0.88445167    -0.32800
C934        C  0.15526163  0.74791003  0.92052261     0.36300
H935        H  0.08652592  0.77477887  0.89197651     0.16600
O936        O  0.10751202  0.77726489  0.82253702    -0.60300
H937        H  0.19244121  0.74109680  0.88258841     0.16600
O938        O  0.17114738  0.73718594  0.95201230    -0.60400
H939        H  0.16820961  0.71283283  0.95308809     0.43600
H940        H  0.10999024  0.80164855  0.82055533     0.43600
C941        C  0.87412678  0.74666593  0.57438949    -0.05500
C942        C  0.84331694  0.75273104  0.57599415    -0.32900
C943        C  0.82794900  0.75216459  0.61119870     0.36300
C944        C  0.84334711  0.74562695  0.64586547    -0.05800
C945        C  0.87395564  0.73893835  0.64425941    -0.32800
C946        C  0.88935677  0.73944341  0.60915178     0.36300
H947        H  0.83100300  0.75837703  0.54990752     0.16600
O948        O  0.79800614  0.75881040  0.61132779    -0.60300
H949        H  0.88620737  0.73338638  0.67043435     0.16600
O950        O  0.91915226  0.73192927  0.60925312    -0.60400
H951        H  0.92895735  0.75140827  0.62082826     0.43600
H952        H  0.78835802  0.73710882  0.60703013     0.43600
C953        C  0.87265068  0.75111569  0.93123771    -0.05500
C954        C  0.88794687  0.75996933  0.89723745    -0.32900
C955        C  0.87380780  0.75997735  0.86142068     0.36300
C956        C  0.84365765  0.75097383  0.85873665    -0.05800
C957        C  0.82813870  0.74252222  0.89263257    -0.32800
C958        C  0.84238419  0.74225523  0.92856501     0.36300
H959        H  0.91115041  0.76697562  0.89818044     0.16600
O960        O  0.88995192  0.76837220  0.82918108    -0.60300
H961        H  0.80495686  0.73547304  0.89126746     0.16600
O962        O  0.82652311  0.73277989  0.96062063    -0.60400
H963        H  0.82961391  0.70846172  0.96288912     0.43600
H964        H  0.88795246  0.79280792  0.82671511     0.43600
C965        C  0.96780055  0.75490786  0.00032602    -0.05500
C966        C  0.98274732  0.75058982  0.96503356    -0.32900
C967        C  0.01377415  0.75164617  0.96281434     0.36300
C968        C  0.03070491  0.75733554  0.99631357    -0.05800
C969        C  0.01572080  0.76221519  0.53145682    -0.32800
C970        C  0.98473241  0.76120697  0.53366225     0.36300
H971        H  0.97042307  0.74586954  0.93887116     0.16600
O972        O  0.02713577  0.74681178  0.92769297    -0.60300
H973        H  0.02800189  0.76696979  0.55762697     0.16600
O974        O  0.97143599  0.76642100  0.56871917    -0.60400
H975        H  0.96750918  0.79063239  0.56963471     0.43600
H976        H  0.02963629  0.72244052  0.92555780     0.43600
loop_ 
_geom_bond_atom_site_label_1 
_geom_bond_atom_site_label_2 
_geom_bond_distance 
_geom_bond_site_symmetry_2 
_ccdc_geom_bond_type 
C1            N2   1.357       .  A
C1            N6   1.361       .  A
C1          C209   1.484       .  S
N2          C247   1.355       .  A
C3            N4   1.354       .  A
C3          N246   1.355       .  A
C3          C233   1.483       .  S
N4            C5   1.357       .  A
C5          N250   1.361       .  A
C5          C221   1.486       .  S
N6          C249   1.360   1_554  A
C7            N8   1.358       .  A
C7           N12   1.363       .  A
C7          C197   1.485       .  S
N8            C9   1.354       .  A
C9          N254   1.354       .  A
C9          C236   1.483       .  S
N10          C11   1.355       .  A
N10         C253   1.354   1_554  A
C11         N256   1.362   1_554  A
C11         C185   1.489       .  S
N12         C255   1.362       .  A
In13         O16   2.229       .  S
In13         O20   2.244       .  S
In13         O21   2.235       .  S
In13         O22   2.236       .  S
In13        O503   2.252       .  S
In13        O512   2.241       .  S
In13        O506   2.256       .  S
In13        O513   2.246       .  S
C14         C173   1.481       .  S
C14          O20   1.263       .  A
C14          O22   1.261       .  A
O15        In501   2.254       .  S
O15         C511   1.262       .  A
O16          C23   1.260       .  A
C17         C164   1.484       .  S
C17          O24   1.259       .  A
C17          O18   1.261       .  A
O18        In501   2.258       .  S
C19         C152   1.477       .  S
C19          O21   1.259       .  A
C19         O513   1.260       .  A
C23         C140   1.481       .  S
C23         O503   1.262       .  A
O24        In501   2.244       .  S
O25        In501   2.249   1_565  S
O25         C507   1.260   1_565  A
In26         O28   2.253       .  S
In26         O29   2.236       .  S
In26         O37   2.243       .  S
In26         O31   2.247       .  S
In26         O33   2.250       .  S
In26         O34   2.237       .  S
In26         O35   2.240       .  S
In26         O38   2.240       .  S
C27         C176   1.482       .  S
C27          O33   1.262       .  A
C27          O35   1.260       .  A
O28          C36   1.260       .  A
O29          C36   1.260       .  A
C30         C161   1.483       .  S
C30          O37   1.260       .  A
C30          O31   1.262       .  A
C32         C200   1.479       .  S
C32          O34   1.261       .  A
C32          O38   1.261       .  A
C36         C188   1.480       .  S
In39         O41   2.257       .  S
In39         O50   2.240   1_565  S
In39         O44   2.260   1_565  S
In39         O47   2.226       .  S
In39         O51   2.259   1_565  S
In39        O530   2.237       .  S
In39        O534   2.247       .  S
In39        O536   2.242       .  S
C40         C125   1.481       .  S
C40          O46   1.262       .  A
C40          O48   1.259       .  A
O41          C49   1.261       .  A
O42        In527   2.238       .  S
O42         C537   1.259       .  A
C43         C116   1.484       .  S
C43          O50   1.259       .  A
C43          O44   1.262       .  A
C45         C101   1.481       .  S
C45          O47   1.259       .  A
C45          O51   1.263   1_565  A
O46        In527   2.246       .  S
O48        In527   2.243       .  S
C49          C92   1.483       .  S
C49         O530   1.259       .  A
In52         O54   2.247       .  S
In52         O55   2.245       .  S
In52         O63   2.227       .  S
In52         O57   2.258       .  S
In52         O59   2.240       .  S
In52         O60   2.228       .  S
In52         O61   2.241       .  S
In52         O64   2.251       .  S
C53         C113   1.482       .  S
C53          O59   1.262       .  A
C53          O61   1.261       .  A
O54          C62   1.260       .  A
O55          C62   1.260       .  A
C56         C128   1.480       .  S
C56          O63   1.258       .  A
C56          O57   1.261       .  A
C58         C224   1.478       .  S
C58          O60   1.260       .  A
C58          O64   1.261       .  A
C62         C212   1.480       .  S
C65          N66   1.356       .  A
C65          N70   1.360       .  A
C65         C149   1.482       .  S
N66          C67   1.355       .  A
C67         N312   1.357       .  A
C67          C77   1.489       .  S
N68          C69   1.361       .  A
N68         C311   1.357       .  A
C69         N314   1.360       .  A
C69         C137   1.491       .  S
N70         C313   1.360       .  A
C71          N72   1.358       .  A
C71         N320   1.360   1_554  A
C71         C104   1.488       .  S
N72         C317   1.356   1_554  A
C73          N74   1.358       .  A
C73         N316   1.356       .  A
C73          C80   1.490       .  S
N74          C75   1.361       .  A
C75          N76   1.360       .  A
C75         C577   1.492       .  S
N76         C315   1.360       .  A
C77          C78   1.407       .  A
C77         C814   1.412       .  A
C78          C79   1.399       .  A
C78          H83   1.083       .  S
C79          C80   1.412       .  A
C79          O84   1.371       .  S
C80         C813   1.408       .  A
C81          C82   1.400       .  A
C81         C812   1.407   1_564  A
C81          H85   1.083       .  S
C82         C809   1.412   1_565  A
C82          O86   1.371       .  S
O84          H88   0.992       .  S
O86          H87   0.992   1_565  S
C89         C563   1.491       .  S
C89          C94   1.415       .  A
C89         C578   1.407   1_565  A
C90          C91   1.399       .  A
C90         C577   1.407       .  A
C90          H95   1.083       .  S
C91         C580   1.410       .  A
C91          O96   1.371       .  S
C92          C93   1.404       .  A
C92         C579   1.410   1_565  A
C93          C94   1.402       .  A
C93          H97   1.083       .  S
C94          O98   1.371       .  S
O96         H100   0.992       .  S
O98          H99   0.992       .  S
C101        C102   1.404   1_565  A
C101        C594   1.410       .  A
C102        C103   1.403       .  A
C102        H107   1.083       .  S
C103        C592   1.413   1_545  A
C103        O108   1.371       .  S
C104        C105   1.406       .  A
C104        C591   1.413       .  A
C105        C106   1.397       .  A
C105        H109   1.083       .  S
C106        C589   1.410       .  A
C106        O110   1.372       .  S
O108        H112   0.992   1_545  S
O110        H111   0.992       .  S
C113        C114   1.404       .  A
C113        C118   1.411       .  A
C114        C115   1.399       .  A
C114        H119   1.084       .  S
C115        C116   1.412       .  A
C115        O120   1.371       .  S
C116        C117   1.405       .  A
C117        C118   1.401       .  A
C117        H121   1.083       .  S
C118        O122   1.371       .  S
O120        H124   0.992       .  S
O122        H123   0.992       .  S
C125        C126   1.407       .  A
C125        C130   1.408       .  A
C126        C127   1.402       .  A
C126        H131   1.083       .  S
C127        C128   1.410       .  A
C127        O132   1.372       .  S
C128        C129   1.404       .  A
C129        C130   1.396       .  A
C129        H133   1.083       .  S
C130        O134   1.371       .  S
O132        H136   0.992       .  S
O134        H135   0.992       .  S
C137        C142   1.415       .  A
C137        C626   1.407       .  A
C138        C139   1.396       .  A
C138        C625   1.407       .  A
C138        H143   1.083       .  S
C139        C628   1.409       .  A
C139        O144   1.372       .  S
C140        C141   1.404       .  A
C140        C627   1.409       .  A
C141        C142   1.402       .  A
C141        H145   1.084       .  S
C142        O146   1.371       .  S
O144        H148   0.992       .  S
O146        H147   0.992       .  S
C149        C150   1.406       .  A
C149        C154   1.411       .  A
C150        C151   1.396       .  A
C150        H155   1.083       .  S
C151        C152   1.409       .  A
C151        O156   1.372       .  S
C152        C153   1.405       .  A
C153        C154   1.400       .  A
C153        H157   1.083       .  S
C154        O158   1.371       .  S
O156        H160   0.992       .  S
O158        H647   0.992       .  S
H159        O646   0.992       .  S
C161        C162   1.406       .  A
C161        C166   1.410       .  A
C162        C163   1.401       .  A
C162        H167   1.083       .  S
C163        C164   1.410       .  A
C163        O168   1.371       .  S
C164        C165   1.406       .  A
C165        C166   1.400       .  A
C165        H169   1.083       .  S
C166        O170   1.371       .  S
O168        H172   0.992       .  S
O170        H171   0.992       .  S
C173        C174   1.406       .  A
C173        C178   1.410       .  A
C174        C175   1.400       .  A
C174        H179   1.083       .  S
C175        C176   1.410       .  A
C175        O180   1.371       .  S
C176        C177   1.405       .  A
C177        C178   1.399       .  A
C177        H181   1.083       .  S
C178        O182   1.371       .  S
O180        H184   0.992       .  S
O182        H183   0.992       .  S
C185        C186   1.407       .  A
C185        C190   1.416       .  A
C186        C187   1.403       .  A
C186        H191   1.083       .  S
C187        C188   1.410       .  A
C187        O192   1.371       .  S
C188        C189   1.401       .  A
C189        C190   1.395       .  A
C189        H193   1.084       .  S
C190        O194   1.372       .  S
O192        H196   0.992       .  S
O194        H195   0.992       .  S
C197        C198   1.407       .  A
C197        C202   1.411       .  A
C198        C199   1.397       .  A
C198        H203   1.083       .  S
C199        C200   1.409       .  A
C199        O204   1.372       .  S
C200        C201   1.405       .  A
C201        C202   1.400       .  A
C201        H205   1.083       .  S
C202        O206   1.371       .  S
O204        H208   0.992       .  S
O206        H207   0.992       .  S
C209        C210   1.405       .  A
C209        C214   1.414       .  A
C210        C211   1.400       .  A
C210        H215   1.083       .  S
C211        C212   1.410       .  A
C211        O216   1.371       .  S
C212        C213   1.403       .  A
C213        C214   1.398       .  A
C213        H217   1.084       .  S
C214        O218   1.371       .  S
O216        H220   0.992       .  S
O218        H219   0.992       .  S
C221        C222   1.407       .  A
C221        C226   1.413       .  A
C222        C223   1.395       .  A
C222        H227   1.083       .  S
C223        C224   1.408       .  A
C223        O228   1.372       .  S
C224        C225   1.405       .  A
C225        C226   1.402       .  A
C225        H229   1.083       .  S
C226        O230   1.371       .  S
O228        H232   0.992       .  S
O230        H231   0.992       .  S
C233        C234   1.407       .  A
C233        C482   1.410       .  A
C234        C235   1.398   1_655  A
C234        H239   1.083       .  S
C235        C236   1.411       .  A
C235        O240   1.372       .  S
C236        C481   1.406       .  A
C237        C238   1.396   1_455  A
C237        C480   1.406   1_554  A
C237        H241   1.083       .  S
C238        C477   1.411       .  A
C238        O242   1.372       .  S
O240        H244   0.992       .  S
O242        H243   0.992       .  S
C245        N246   1.357       .  A
C245        N250   1.361       .  A
C245        C453   1.484       .  S
C247        N248   1.354   1_554  A
C247        C477   1.483       .  S
N248        C249   1.357       .  A
C249        C465   1.486       .  S
C251        N252   1.358       .  A
C251        N256   1.363       .  A
C251        C441   1.485       .  S
N252        C253   1.354       .  A
C253        C480   1.483       .  S
N254        C255   1.355       .  A
C255        C429   1.489       .  S
In257       O747   2.252       .  S
In257       O260   2.229       .  S
In257       O756   2.241       .  S
In257       O750   2.256       .  S
In257       O264   2.244       .  S
In257       O265   2.235       .  S
In257       O266   2.236       .  S
In257       O757   2.246       .  S
C258        C417   1.481       .  S
C258        O264   1.263       .  A
C258        O266   1.261       .  A
O259       In745   2.254       .  S
O259        C755   1.262       .  A
O260        C267   1.260       .  A
C261        C408   1.484       .  S
C261        O268   1.259       .  A
C261        O262   1.261       .  A
O262       In745   2.258       .  S
C263        C396   1.477       .  S
C263        O265   1.259       .  A
C263        O757   1.260       .  A
C267        C384   1.481       .  S
C267        O747   1.262       .  A
O268       In745   2.244       .  S
O269       In745   2.249   1_565  S
O269        C751   1.260   1_565  A
In270       O272   2.253       .  S
In270       O273   2.236       .  S
In270       O281   2.243       .  S
In270       O275   2.247       .  S
In270       O277   2.250       .  S
In270       O278   2.237       .  S
In270       O279   2.240       .  S
In270       O282   2.240       .  S
C271        C420   1.482       .  S
C271        O277   1.262       .  A
C271        O279   1.260       .  A
O272        C280   1.260       .  A
O273        C280   1.260       .  A
C274        C405   1.483       .  S
C274        O281   1.260       .  A
C274        O275   1.262       .  A
C276        C444   1.479       .  S
C276        O278   1.261       .  A
C276        O282   1.261       .  A
C280        C432   1.480       .  S
In283       O285   2.257       .  S
In283       O774   2.237       .  S
In283       O294   2.240   1_565  S
In283       O288   2.260   1_565  S
In283       O778   2.247       .  S
In283       O291   2.226       .  S
In283       O780   2.242       .  S
In283       O295   2.259   1_565  S
C284        C369   1.481       .  S
C284        O290   1.262       .  A
C284        O292   1.259       .  A
O285        C293   1.261       .  A
O286       In771   2.238       .  S
O286        C781   1.259       .  A
C287        C360   1.484       .  S
C287        O294   1.259       .  A
C287        O288   1.262       .  A
C289        C345   1.481       .  S
C289        O291   1.259       .  A
C289        O295   1.263   1_565  A
O290       In771   2.246       .  S
O292       In771   2.243       .  S
C293        C336   1.483       .  S
C293        O774   1.259       .  A
In296       O298   2.247       .  S
In296       O299   2.245       .  S
In296       O307   2.227       .  S
In296       O301   2.258       .  S
In296       O303   2.240       .  S
In296       O304   2.228       .  S
In296       O305   2.241       .  S
In296       O308   2.251       .  S
C297        C357   1.482       .  S
C297        O303   1.262       .  A
C297        O305   1.261       .  A
O298        C306   1.260       .  A
O299        C306   1.260       .  A
C300        C372   1.480       .  S
C300        O307   1.258       .  A
C300        O301   1.261       .  A
C302        C468   1.478       .  S
C302        O304   1.260       .  A
C302        O308   1.261       .  A
C306        C456   1.480       .  S
C309        N310   1.356       .  A
C309        N314   1.360   1_556  A
C309        C393   1.482       .  S
N310        C311   1.355   1_556  A
C311        C321   1.489       .  S
N312        C313   1.361       .  A
C313        C381   1.491       .  S
C315        N316   1.358       .  A
C315        C348   1.488       .  S
C317        N318   1.358       .  A
C317        C324   1.490       .  S
N318        C319   1.361       .  A
C319        N320   1.360       .  A
C319        C821   1.492       .  S
C321        C322   1.407   1_554  A
C321        C570   1.412       .  A
C322        C323   1.399       .  A
C322        H327   1.083       .  S
C323        C324   1.412       .  A
C323        O328   1.371       .  S
C324        C569   1.407   1_556  A
C325        C568   1.407   1_565  A
C325        C326   1.400       .  A
C325        H329   1.083       .  S
C326        C565   1.412   1_565  A
C326        O330   1.371       .  S
O328        H332   0.992       .  S
O330        H331   0.992   1_565  S
C333        C807   1.491       .  S
C333        C822   1.407   1_565  A
C333        C338   1.415       .  A
C334        C821   1.407       .  A
C334        C335   1.399       .  A
C334        H339   1.083       .  S
C335        C824   1.410       .  A
C335        O340   1.371       .  S
C336        C823   1.410   1_565  A
C336        C337   1.404       .  A
C337        C338   1.402       .  A
C337        H341   1.083       .  S
C338        O342   1.371       .  S
O340        H344   0.992       .  S
O342        H343   0.992       .  S
C345        C346   1.404   1_565  A
C345        C838   1.410       .  A
C346        C347   1.403       .  A
C346        H351   1.083       .  S
C347        C836   1.413   1_545  A
C347        O352   1.371       .  S
C348        C835   1.413       .  A
C348        C349   1.406       .  A
C349        C350   1.397       .  A
C349        H353   1.083       .  S
C350        C833   1.410       .  A
C350        O354   1.372       .  S
O352        H356   0.992   1_545  S
O354        H355   0.992       .  S
C357        C358   1.404       .  A
C357        C362   1.411       .  A
C358        C359   1.399       .  A
C358        H363   1.084       .  S
C359        C360   1.412       .  A
C359        O364   1.371       .  S
C360        C361   1.405       .  A
C361        C362   1.401       .  A
C361        H365   1.083       .  S
C362        O366   1.371       .  S
O364        H368   0.992       .  S
O366        H367   0.992       .  S
C369        C370   1.407       .  A
C369        C374   1.408       .  A
C370        C371   1.402       .  A
C370        H375   1.083       .  S
C371        C372   1.410       .  A
C371        O376   1.372       .  S
C372        C373   1.404       .  A
C373        C374   1.396       .  A
C373        H377   1.083       .  S
C374        O378   1.371       .  S
O376        H380   0.992       .  S
O378        H379   0.992       .  S
C381        C870   1.407       .  A
C381        C386   1.415       .  A
C382        C869   1.407       .  A
C382        C383   1.396       .  A
C382        H387   1.083       .  S
C383        C872   1.409       .  A
C383        O388   1.372       .  S
C384        C871   1.409       .  A
C384        C385   1.404       .  A
C385        C386   1.402       .  A
C385        H389   1.084       .  S
C386        O390   1.371       .  S
O388        H392   0.992       .  S
O390        H391   0.992       .  S
C393        C394   1.406       .  A
C393        C398   1.411       .  A
C394        C395   1.396       .  A
C394        H399   1.083       .  S
C395        C396   1.409       .  A
C395        O400   1.372       .  S
C396        C397   1.405       .  A
C397        C398   1.400       .  A
C397        H401   1.083       .  S
C398        O402   1.371       .  S
O400        H404   0.992       .  S
O402        H891   0.992       .  S
H403        O890   0.992       .  S
C405        C406   1.406       .  A
C405        C410   1.410       .  A
C406        C407   1.401       .  A
C406        H411   1.083       .  S
C407        C408   1.410       .  A
C407        O412   1.371       .  S
C408        C409   1.406       .  A
C409        C410   1.400       .  A
C409        H413   1.083       .  S
C410        O414   1.371       .  S
O412        H416   0.992       .  S
O414        H415   0.992       .  S
C417        C418   1.406       .  A
C417        C422   1.410       .  A
C418        C419   1.400       .  A
C418        H423   1.083       .  S
C419        C420   1.410       .  A
C419        O424   1.371       .  S
C420        C421   1.405       .  A
C421        C422   1.399       .  A
C421        H425   1.083       .  S
C422        O426   1.371       .  S
O424        H428   0.992       .  S
O426        H427   0.992       .  S
C429        C430   1.407       .  A
C429        C434   1.416       .  A
C430        C431   1.403       .  A
C430        H435   1.083       .  S
C431        C432   1.410       .  A
C431        O436   1.371       .  S
C432        C433   1.401       .  A
C433        C434   1.395       .  A
C433        H437   1.084       .  S
C434        O438   1.372       .  S
O436        H440   0.992       .  S
O438        H439   0.992       .  S
C441        C442   1.407       .  A
C441        C446   1.411       .  A
C442        C443   1.397       .  A
C442        H447   1.083       .  S
C443        C444   1.409       .  A
C443        O448   1.372       .  S
C444        C445   1.405       .  A
C445        C446   1.400       .  A
C445        H449   1.083       .  S
C446        O450   1.371       .  S
O448        H452   0.992       .  S
O450        H451   0.992       .  S
C453        C454   1.405       .  A
C453        C458   1.414       .  A
C454        C455   1.400       .  A
C454        H459   1.083       .  S
C455        C456   1.410       .  A
C455        O460   1.371       .  S
C456        C457   1.403       .  A
C457        C458   1.398       .  A
C457        H461   1.084       .  S
C458        O462   1.371       .  S
O460        H464   0.992       .  S
O462        H463   0.992       .  S
C465        C466   1.407       .  A
C465        C470   1.413       .  A
C466        C467   1.395       .  A
C466        H471   1.083       .  S
C467        C468   1.408       .  A
C467        O472   1.372       .  S
C468        C469   1.405       .  A
C469        C470   1.402       .  A
C469        H473   1.083       .  S
C470        O474   1.371       .  S
O472        H476   0.992       .  S
O474        H475   0.992       .  S
C477        C478   1.407   1_554  A
C478        C479   1.398   1_655  A
C478        H483   1.083       .  S
C479        C480   1.411       .  A
C479        O484   1.372       .  S
C481        C482   1.396   1_455  A
C481        H485   1.083       .  S
C482        O486   1.372       .  S
O484        H488   0.992       .  S
O486        H487   0.992       .  S
C489        N490   1.358       .  A
C489        N494   1.362       .  A
C489        C697   1.488       .  S
N490        C735   1.356       .  A
C491        N734   1.356       .  A
C491        N492   1.355       .  A
C491        C721   1.485       .  S
N492        C493   1.357       .  A
C493        N738   1.361       .  A
C493        C709   1.488       .  S
N494        C737   1.361   1_554  A
C495        N496   1.358       .  A
C495        N500   1.363       .  A
C495        C685   1.486       .  S
N496        C497   1.355       .  A
C497        N742   1.354       .  A
C497        C724   1.484       .  S
N498        C741   1.354   1_554  A
N498        C499   1.356       .  A
C499        N744   1.362   1_554  A
C499        C673   1.491       .  S
N500        C743   1.362       .  A
In501       O504   2.229       .  S
In501       O508   2.246   1_545  S
In501       O509   2.239       .  S
In501       O510   2.238   1_545  S
C502        C661   1.482       .  S
C502        O508   1.263       .  A
C502        O510   1.261       .  A
O504        C511   1.260       .  A
C505        C652   1.483       .  S
C505        O512   1.258       .  A
C505        O506   1.261       .  A
C507        C640   1.479       .  S
C507        O509   1.259       .  A
C511        C628   1.482       .  S
In514       O516   2.257       .  S
In514       O517   2.236       .  S
In514       O525   2.243       .  S
In514       O519   2.249       .  S
In514       O521   2.255       .  S
In514       O522   2.241       .  S
In514       O523   2.240       .  S
In514       O526   2.240       .  S
C515        C664   1.483       .  S
C515        O521   1.262       .  A
C515        O523   1.260       .  A
O516        C524   1.260       .  A
O517        C524   1.260       .  A
C518        C649   1.483       .  S
C518        O525   1.260       .  A
C518        O519   1.262       .  A
C520        C688   1.480       .  S
C520        O522   1.261       .  A
C520        O526   1.261       .  A
C524        C676   1.481       .  S
In527       O529   2.255       .  S
In527       O538   2.243       .  S
In527       O532   2.261       .  S
In527       O535   2.225       .  S
In527       O539   2.259       .  S
C528        C613   1.482       .  S
C528        O534   1.262       .  A
C528        O536   1.259       .  A
O529        C537   1.261       .  A
C531        C604   1.485       .  S
C531        O538   1.259       .  A
C531        O532   1.262       .  A
C533        C589   1.481       .  S
C533        O535   1.259       .  A
C533        O539   1.263       .  A
C537        C580   1.483       .  S
In540       O542   2.248       .  S
In540       O543   2.242       .  S
In540       O551   2.229       .  S
In540       O545   2.256       .  S
In540       O547   2.246       .  S
In540       O548   2.234       .  S
In540       O549   2.239       .  S
In540       O552   2.252       .  S
C541        C601   1.483       .  S
C541        O547   1.262       .  A
C541        O549   1.260       .  A
O542        C550   1.260       .  A
O543        C550   1.261       .  A
C544        C616   1.481       .  S
C544        O551   1.260       .  A
C544        O545   1.262       .  A
C546        C712   1.481       .  S
C546        O548   1.260       .  A
C546        O552   1.261       .  A
C550        C700   1.481       .  S
C553        N554   1.357   1_565  A
C553        N558   1.360       .  A
C553        C637   1.483       .  S
N554        C555   1.355       .  A
C555        N800   1.357       .  A
C555        C565   1.489       .  S
N556        C799   1.357       .  A
N556        C557   1.361       .  A
C557        N802   1.361   1_545  A
C557        C625   1.492       .  S
N558        C801   1.361   1_565  A
C559        N560   1.358   1_565  A
C559        N808   1.360   1_554  A
C559        C592   1.488       .  S
N560        C805   1.357   1_544  A
C561        N804   1.357   1_565  A
C561        N562   1.358       .  A
C561        C568   1.489   1_565  S
N562        C563   1.360       .  A
C563        N564   1.360       .  A
N564        C803   1.360       .  A
C565        C566   1.407       .  A
C566        C567   1.400       .  A
C566        H571   1.083       .  S
C567        C568   1.412       .  A
C567        O572   1.372       .  S
C569        C570   1.400       .  A
C569        H573   1.083       .  S
C570        O574   1.372       .  S
O572        H576   0.992   1_545  S
O574        H575   0.992       .  S
C577        C582   1.415       .  A
C578        C579   1.398       .  A
C578        H583   1.083       .  S
C579        O584   1.372       .  S
C580        C581   1.404       .  A
C581        C582   1.402       .  A
C581        H585   1.083       .  S
C582        O586   1.371       .  S
O584        H588   0.992   1_545  S
O586        H587   0.992       .  S
C589        C590   1.404       .  A
C590        C591   1.403       .  A
C590        H595   1.083       .  S
C591        O596   1.371       .  S
C592        C593   1.406       .  A
C593        C594   1.397       .  A
C593        H597   1.083       .  S
C594        O598   1.372       .  S
O596        H600   0.992       .  S
O598        H599   0.992   1_565  S
C601        C602   1.404       .  A
C601        C606   1.412       .  A
C602        C603   1.400       .  A
C602        H607   1.083       .  S
C603        C604   1.412       .  A
C603        O608   1.371       .  S
C604        C605   1.404       .  A
C605        C606   1.401       .  A
C605        H609   1.083       .  S
C606        O610   1.372       .  S
O608        H612   0.992       .  S
O610        H611   0.992       .  S
C613        C614   1.407       .  A
C613        C618   1.409       .  A
C614        C615   1.402       .  A
C614        H619   1.083       .  S
C615        C616   1.410       .  A
C615        O620   1.372       .  S
C616        C617   1.404       .  A
C617        C618   1.397       .  A
C617        H621   1.083       .  S
C618        O622   1.371       .  S
O620        H624   0.992       .  S
O622        H623   0.992       .  S
C625        C630   1.415       .  A
C626        C627   1.396       .  A
C626        H631   1.083       .  S
C627        O632   1.372       .  S
C628        C629   1.404       .  A
C629        C630   1.403       .  A
C629        H633   1.083       .  S
C630        O634   1.371       .  S
O632        H636   0.992       .  S
O634        H635   0.992   1_545  S
C637        C638   1.406   1_565  A
C637        C642   1.411       .  A
C638        C639   1.396       .  A
C638        H643   1.083       .  S
C639        C640   1.409       .  A
C639        O644   1.372       .  S
C640        C641   1.405   1_545  A
C641        C642   1.400       .  A
C641        H645   1.083       .  S
C642        O646   1.371       .  S
O644        H648   0.992       .  S
C649        C650   1.406       .  A
C649        C654   1.410       .  A
C650        C651   1.401       .  A
C650        H655   1.083       .  S
C651        C652   1.410       .  A
C651        O656   1.371       .  S
C652        C653   1.405       .  A
C653        C654   1.400       .  A
C653        H657   1.083       .  S
C654        O658   1.371       .  S
O656        H660   0.992       .  S
O658        H659   0.992       .  S
C661        C662   1.406       .  A
C661        C666   1.410       .  A
C662        C663   1.401       .  A
C662        H667   1.083       .  S
C663        C664   1.410       .  A
C663        O668   1.371       .  S
C664        C665   1.405       .  A
C665        C666   1.399       .  A
C665        H669   1.083       .  S
C666        O670   1.371       .  S
O668        H672   0.992       .  S
O670        H671   0.992       .  S
C673        C674   1.408       .  A
C673        C678   1.416       .  A
C674        C675   1.403       .  A
C674        H679   1.083       .  S
C675        C676   1.410       .  A
C675        O680   1.371       .  S
C676        C677   1.401       .  A
C677        C678   1.396       .  A
C677        H681   1.084       .  S
C678        O682   1.372       .  S
O680        H684   0.992       .  S
O682        H683   0.992       .  S
C685        C686   1.408       .  A
C685        C690   1.411       .  A
C686        C687   1.398       .  A
C686        H691   1.083       .  S
C687        C688   1.409       .  A
C687        O692   1.372       .  S
C688        C689   1.404       .  A
C689        C690   1.400       .  A
C689        H693   1.083       .  S
C690        O694   1.371       .  S
O692        H696   0.992       .  S
O694        H695   0.992       .  S
C697        C698   1.406       .  A
C697        C702   1.415       .  A
C698        C699   1.401       .  A
C698        H703   1.083       .  S
C699        C700   1.410       .  A
C699        O704   1.371       .  S
C700        C701   1.402       .  A
C701        C702   1.399       .  A
C701        H705   1.084       .  S
C702        O706   1.372       .  S
O704        H708   0.992       .  S
O706        H707   0.992       .  S
C709        C710   1.407       .  A
C709        C714   1.413       .  A
C710        C711   1.397       .  A
C710        H715   1.083       .  S
C711        C712   1.409       .  A
C711        O716   1.372       .  S
C712        C713   1.405       .  A
C713        C714   1.402       .  A
C713        H717   1.083       .  S
C714        O718   1.371       .  S
O716        H720   0.992       .  S
O718        H719   0.992       .  S
C721        C722   1.406       .  A
C721        C970   1.412       .  A
C722        C723   1.398   1_655  A
C722        H727   1.083       .  S
C723        C724   1.412       .  A
C723        O728   1.371       .  S
C724        C969   1.406       .  A
C725        C968   1.406   1_554  A
C725        C726   1.396   1_455  A
C725        H729   1.083       .  S
C726        C965   1.412       .  A
C726        O730   1.371       .  S
O728        H732   0.992       .  S
O730        H731   0.992       .  S
C733        N734   1.358       .  A
C733        N738   1.362       .  A
C733        C941   1.488       .  S
C735        N736   1.355   1_554  A
C735        C965   1.485       .  S
N736        C737   1.357       .  A
C737        C953   1.488       .  S
C739        N740   1.358       .  A
C739        N744   1.363       .  A
C739        C929   1.486       .  S
N740        C741   1.355       .  A
C741        C968   1.484       .  S
N742        C743   1.356       .  A
C743        C917   1.491       .  S
In745       O748   2.229       .  S
In745       O752   2.246   1_545  S
In745       O753   2.239       .  S
In745       O754   2.238   1_545  S
C746        C905   1.482       .  S
C746        O752   1.263       .  A
C746        O754   1.261       .  A
O748        C755   1.260       .  A
C749        C896   1.483       .  S
C749        O756   1.258       .  A
C749        O750   1.261       .  A
C751        C884   1.479       .  S
C751        O753   1.259       .  A
C755        C872   1.482       .  S
In758       O760   2.257       .  S
In758       O761   2.236       .  S
In758       O769   2.243       .  S
In758       O763   2.249       .  S
In758       O765   2.255       .  S
In758       O766   2.241       .  S
In758       O767   2.240       .  S
In758       O770   2.240       .  S
C759        C908   1.483       .  S
C759        O765   1.262       .  A
C759        O767   1.260       .  A
O760        C768   1.260       .  A
O761        C768   1.260       .  A
C762        C893   1.483       .  S
C762        O769   1.260       .  A
C762        O763   1.262       .  A
C764        C932   1.480       .  S
C764        O766   1.261       .  A
C764        O770   1.261       .  A
C768        C920   1.481       .  S
In771       O773   2.255       .  S
In771       O782   2.243       .  S
In771       O776   2.261       .  S
In771       O779   2.225       .  S
In771       O783   2.259       .  S
C772        C857   1.482       .  S
C772        O778   1.262       .  A
C772        O780   1.259       .  A
O773        C781   1.261       .  A
C775        C848   1.485       .  S
C775        O782   1.259       .  A
C775        O776   1.262       .  A
C777        C833   1.481       .  S
C777        O779   1.259       .  A
C777        O783   1.263       .  A
C781        C824   1.483       .  S
In784       O786   2.248       .  S
In784       O787   2.242       .  S
In784       O795   2.229       .  S
In784       O789   2.256       .  S
In784       O791   2.246       .  S
In784       O792   2.235       .  S
In784       O793   2.239       .  S
In784       O796   2.252       .  S
C785        C845   1.483       .  S
C785        O791   1.262       .  A
C785        O793   1.260       .  A
O786        C794   1.260       .  A
O787        C794   1.261       .  A
C788        C860   1.481       .  S
C788        O795   1.260       .  A
C788        O789   1.262       .  A
C790        C956   1.481       .  S
C790        O792   1.260       .  A
C790        O796   1.261       .  A
C794        C944   1.481       .  S
C797        N798   1.357   1_565  A
C797        N802   1.360   1_556  A
C797        C881   1.483       .  S
N798        C799   1.355   1_556  A
C799        C809   1.489       .  S
N800        C801   1.361       .  A
C801        C869   1.492       .  S
C803        N804   1.358   1_565  A
C803        C836   1.488       .  S
C805        N806   1.358       .  A
C805        C812   1.489   1_565  S
N806        C807   1.360       .  A
C807        N808   1.360       .  A
C809        C810   1.407   1_554  A
C810        C811   1.400       .  A
C810        H815   1.083       .  S
C811        C812   1.412       .  A
C811        O816   1.372       .  S
C813        C814   1.400       .  A
C813        H817   1.083       .  S
C814        O818   1.372       .  S
O816        H820   0.992   1_545  S
O818        H819   0.992       .  S
C821        C826   1.415       .  A
C822        C823   1.398       .  A
C822        H827   1.083       .  S
C823        O828   1.372       .  S
C824        C825   1.404       .  A
C825        C826   1.402       .  A
C825        H829   1.083       .  S
C826        O830   1.371       .  S
O828        H832   0.992   1_545  S
O830        H831   0.992       .  S
C833        C834   1.404       .  A
C834        C835   1.403       .  A
C834        H839   1.083       .  S
C835        O840   1.371       .  S
C836        C837   1.406       .  A
C837        C838   1.397       .  A
C837        H841   1.083       .  S
C838        O842   1.372       .  S
O840        H844   0.992       .  S
O842        H843   0.992   1_565  S
C845        C846   1.404       .  A
C845        C850   1.412       .  A
C846        C847   1.400       .  A
C846        H851   1.083       .  S
C847        C848   1.412       .  A
C847        O852   1.371       .  S
C848        C849   1.404       .  A
C849        C850   1.401       .  A
C849        H853   1.083       .  S
C850        O854   1.372       .  S
O852        H856   0.992       .  S
O854        H855   0.992       .  S
C857        C858   1.407       .  A
C857        C862   1.409       .  A
C858        C859   1.402       .  A
C858        H863   1.083       .  S
C859        C860   1.410       .  A
C859        O864   1.372       .  S
C860        C861   1.404       .  A
C861        C862   1.397       .  A
C861        H865   1.083       .  S
C862        O866   1.371       .  S
O864        H868   0.992       .  S
O866        H867   0.992       .  S
C869        C874   1.415       .  A
C870        C871   1.396       .  A
C870        H875   1.083       .  S
C871        O876   1.372       .  S
C872        C873   1.404       .  A
C873        C874   1.403       .  A
C873        H877   1.083       .  S
C874        O878   1.371       .  S
O876        H880   0.992       .  S
O878        H879   0.992   1_545  S
C881        C882   1.406   1_565  A
C881        C886   1.411       .  A
C882        C883   1.396       .  A
C882        H887   1.083       .  S
C883        C884   1.409       .  A
C883        O888   1.372       .  S
C884        C885   1.405   1_545  A
C885        C886   1.400       .  A
C885        H889   1.083       .  S
C886        O890   1.371       .  S
O888        H892   0.992       .  S
C893        C894   1.406       .  A
C893        C898   1.410       .  A
C894        C895   1.401       .  A
C894        H899   1.083       .  S
C895        C896   1.410       .  A
C895        O900   1.371       .  S
C896        C897   1.405       .  A
C897        C898   1.400       .  A
C897        H901   1.083       .  S
C898        O902   1.371       .  S
O900        H904   0.992       .  S
O902        H903   0.992       .  S
C905        C906   1.406       .  A
C905        C910   1.410       .  A
C906        C907   1.401       .  A
C906        H911   1.083       .  S
C907        C908   1.410       .  A
C907        O912   1.371       .  S
C908        C909   1.405       .  A
C909        C910   1.399       .  A
C909        H913   1.083       .  S
C910        O914   1.371       .  S
O912        H916   0.992       .  S
O914        H915   0.992       .  S
C917        C918   1.408       .  A
C917        C922   1.416       .  A
C918        C919   1.403       .  A
C918        H923   1.083       .  S
C919        C920   1.410       .  A
C919        O924   1.371       .  S
C920        C921   1.401       .  A
C921        C922   1.396       .  A
C921        H925   1.084       .  S
C922        O926   1.372       .  S
O924        H928   0.992       .  S
O926        H927   0.992       .  S
C929        C930   1.408       .  A
C929        C934   1.411       .  A
C930        C931   1.398       .  A
C930        H935   1.083       .  S
C931        C932   1.409       .  A
C931        O936   1.372       .  S
C932        C933   1.404       .  A
C933        C934   1.400       .  A
C933        H937   1.083       .  S
C934        O938   1.371       .  S
O936        H940   0.992       .  S
O938        H939   0.992       .  S
C941        C942   1.406       .  A
C941        C946   1.415       .  A
C942        C943   1.401       .  A
C942        H947   1.083       .  S
C943        C944   1.410       .  A
C943        O948   1.371       .  S
C944        C945   1.402       .  A
C945        C946   1.399       .  A
C945        H949   1.084       .  S
C946        O950   1.372       .  S
O948        H952   0.992       .  S
O950        H951   0.992       .  S
C953        C954   1.407       .  A
C953        C958   1.413       .  A
C954        C955   1.397       .  A
C954        H959   1.083       .  S
C955        C956   1.409       .  A
C955        O960   1.372       .  S
C956        C957   1.405       .  A
C957        C958   1.402       .  A
C957        H961   1.083       .  S
C958        O962   1.371       .  S
O960        H964   0.992       .  S
O962        H963   0.992       .  S
C965        C966   1.406   1_554  A
C966        C967   1.398   1_655  A
C966        H971   1.083       .  S
C967        C968   1.412       .  A
C967        O972   1.371       .  S
C969        C970   1.396   1_455  A
C969        H973   1.083       .  S
C970        O974   1.371       .  S
O972        H976   0.992       .  S
O974        H975   0.992       .  S
