geometry optimzed in LAMMPS
_audit_creation_date              2020-11-30 
_audit_creation_method            'lammps2cif' 
_symmetry_space_group_name_H-M    'P1' 
_symmetry_Int_Tables_number       1 
_symmetry_cell_setting            triclinic 
loop_ 
_symmetry_equiv_pos_as_xyz 
  x,y,z 
_cell_length_a                    44.00613753 
_cell_length_b                    43.98869509673478 
_cell_length_c                    40.81171452417573 
_cell_angle_alpha                 89.95192719039406 
_cell_angle_beta                  90.00399646894668 
_cell_angle_gamma                 90.00483670698927 
loop_ 
_atom_site_label 
_atom_site_type_symbol 
_atom_site_fract_x 
_atom_site_fract_y 
_atom_site_fract_z 
_atom_site_charge 
N1          N  0.26661323  0.06552810  0.65361469    -0.26200
N2          N  0.28052565  0.08804125  0.66904661    -0.34100
C3          C  0.26527928  0.09443211  0.69675935     0.02100
C4          C  0.24075739  0.07501750  0.69876972     0.08100
C5          C  0.24215312  0.05699451  0.67116187    -0.05000
H6          H  0.27169090  0.11182998  0.71416666     0.08800
H7          H  0.22667474  0.03896185  0.66435461     0.10000
Cu8        Cu  0.31970438  0.10925714  0.65238828     0.44200
Cu9        Cu  0.28145499  0.04708150  0.60961018     0.42000
Cu10       Cu  0.34735689  0.08406726  0.57443636     0.43900
N11         N  0.35781486  0.12764004  0.62999687    -0.33600
N12         N  0.36716317  0.11910004  0.60063984    -0.27900
C13         C  0.39127692  0.13602413  0.59193690    -0.04000
C14         C  0.39766462  0.15586075  0.61724887     0.08300
C15         C  0.37610259  0.14991344  0.64106195     0.02000
H16         H  0.40345630  0.13380278  0.56901052     0.09700
H17         H  0.37346295  0.16136902  0.66435580     0.08800
N18         N  0.32590871  0.04702007  0.55344508    -0.35100
N19         N  0.30188193  0.03335035  0.56621418    -0.27200
C20         C  0.29418387  0.00965450  0.54707661    -0.02500
C21         C  0.31436023  0.00856524  0.52120489     0.06100
C22         C  0.33416397  0.03243455  0.52591161     0.04200
H23         H  0.27560641  0.99418546  0.55192422     0.09300
H24         H  0.35342114  0.03851878  0.51078274     0.08200
O25         O  0.43389230  0.25359031  0.59132895    -0.71900
O26         O  0.49690852  0.18721244  0.59205463    -0.72900
O27         O  0.43270888  0.18871178  0.59104642    -0.61500
O28         O  0.49800900  0.25204295  0.59199297    -0.69900
O29         O  0.49793408  0.25187400  0.64642720    -0.69400
O30         O  0.43163361  0.18878746  0.64546498    -0.60700
O31         O  0.49651257  0.18777018  0.64648499    -0.73200
O32         O  0.43311914  0.25294004  0.64575149    -0.72000
Cu33       Cu  0.46539935  0.22038137  0.58969218     1.04600
Cu34       Cu  0.46477438  0.22032234  0.64793672     1.04300
C35         C  0.42358601  0.26361139  0.61853395     0.94300
C36         C  0.50672777  0.17725035  0.61950918     0.93500
C37         C  0.42179850  0.17885178  0.61802056     0.85600
C38         C  0.50827914  0.26191605  0.61923478     0.91900
N39         N  0.65396441  0.06010427  0.67261676    -0.26200
N40         N  0.64036646  0.08440438  0.68484476    -0.34100
C41         C  0.65472091  0.09286828  0.71245398     0.02100
C42         C  0.67836153  0.07291664  0.71775451     0.08100
C43         C  0.67737920  0.05244574  0.69216974    -0.05000
H44         H  0.64847803  0.11220532  0.72738328     0.08800
H45         H  0.69258266  0.03352177  0.68794499     0.10000
Cu46       Cu  0.60332971  0.10550569  0.66341255     0.44200
Cu47       Cu  0.64022862  0.03880561  0.62973885     0.42000
Cu48       Cu  0.57801683  0.07612542  0.58622558     0.43900
N49         N  0.56780280  0.12423697  0.63705981    -0.33600
N50         N  0.55920941  0.11428922  0.60795075    -0.27900
C51         C  0.53641564  0.13189596  0.59680756    -0.04000
C52         C  0.53017426  0.15359810  0.62035628     0.08300
C53         C  0.55039405  0.14804368  0.64554737     0.02000
H54         H  0.52478782  0.12865286  0.57369619     0.09700
H55         H  0.55252511  0.16057418  0.66825936     0.08800
N56         N  0.59920169  0.03669266  0.57043741    -0.35100
N57         N  0.62172067  0.02306355  0.58616017    -0.27200
C58         C  0.63039066  0.99841986  0.56901891    -0.02500
C59         C  0.61244290  0.99663278  0.54137570     0.06100
C60         C  0.59293383  0.02109124  0.54293743     0.04200
H61         H  0.64857899  0.98319967  0.57601614     0.09300
H62         H  0.57567791  0.02731802  0.52528450     0.08200
N63         N  0.27510546  0.38098595  0.66603545    -0.26200
N64         N  0.28919945  0.35769856  0.67983119    -0.34100
C65         C  0.27473128  0.35021900  0.70771635     0.02100
C66         C  0.25052576  0.36978751  0.71152811     0.08100
C67         C  0.25127892  0.38898612  0.68479966    -0.05000
H68         H  0.28130544  0.33183932  0.72386862     0.08800
H69         H  0.23568681  0.40731617  0.67930270     0.10000
Cu70       Cu  0.32712222  0.33678331  0.66000581     0.44200
Cu71       Cu  0.28894860  0.40067085  0.62237300     0.42000
Cu72       Cu  0.35307963  0.36428901  0.58174548     0.43900
N73         N  0.36301246  0.31766403  0.63450451    -0.33600
N74         N  0.37179208  0.32687382  0.60515047    -0.27900
C75         C  0.39448823  0.30884129  0.59462631    -0.04000
C76         C  0.40045532  0.28760316  0.61877854     0.08300
C77         C  0.38020697  0.29391139  0.64372932     0.02000
H78         H  0.40612675  0.31137765  0.57141344     0.09700
H79         H  0.37780778  0.28183212  0.66671065     0.08800
N80         N  0.33128989  0.40281219  0.56425510    -0.35100
N81         N  0.30797158  0.41603536  0.57895297    -0.27200
C82         C  0.29931197  0.44036607  0.56126213    -0.02500
C83         C  0.31810466  0.44238335  0.53430763     0.06100
C84         C  0.33810224  0.41838072  0.53685242     0.04200
H85         H  0.28076382  0.45538561  0.56759345     0.09300
H86         H  0.35623535  0.41260133  0.52008301     0.08200
N87         N  0.66145023  0.37679371  0.65707689    -0.26200
N88         N  0.64772081  0.35428112  0.67271313    -0.34100
C89         C  0.66317656  0.34805596  0.70036406     0.02100
C90         C  0.68763784  0.36760231  0.70206802     0.08100
C91         C  0.68598272  0.38550110  0.67436751    -0.05000
H92         H  0.65697400  0.33067965  0.71791032     0.08800
H93         H  0.70133335  0.40356890  0.66732014     0.10000
Cu94       Cu  0.60864413  0.33291025  0.65595262     0.44200
Cu95       Cu  0.64630168  0.39495772  0.61312261     0.42000
Cu96       Cu  0.58154137  0.35784253  0.57674569     0.43900
N97         N  0.57122116  0.31411452  0.63257513    -0.33600
N98         N  0.56222737  0.32251329  0.60300439    -0.27900
C99         C  0.53859761  0.30515942  0.59383559    -0.04000
C100        C  0.53213736  0.28518006  0.61900362     0.08300
C101        C  0.55314570  0.29148825  0.64326678     0.02000
H102        H  0.52676263  0.30720482  0.57067394     0.09700
H103        H  0.55556129  0.28006105  0.66662546     0.08800
N104        N  0.60294687  0.39511912  0.55608607    -0.35100
N105        N  0.62663400  0.40884968  0.56945469    -0.27200
C106        C  0.63482585  0.43247242  0.55043935    -0.02500
C107        C  0.61533673  0.43346613  0.52397698     0.06100
C108        C  0.59539571  0.40960733  0.52822045     0.04200
H109        H  0.65340652  0.44783519  0.55564997     0.09300
H110        H  0.57665082  0.40335517  0.51243988     0.08200
N111        N  0.28010815  0.88160298  0.31703845    -0.26200
N112        N  0.29343944  0.85719056  0.30477954    -0.34100
C113        C  0.27884752  0.84880636  0.27727062     0.02100
C114        C  0.25532679  0.86896912  0.27211790     0.08100
C115        C  0.25664568  0.88944899  0.29766233    -0.05000
H116        H  0.28479947  0.82937063  0.26235629     0.08800
H117        H  0.24159128  0.90846316  0.30202716     0.10000
Cu118      Cu  0.33032893  0.83611148  0.32654163     0.44200
Cu119      Cu  0.29418592  0.90253040  0.35989737     0.42000
Cu120      Cu  0.35524772  0.86523776  0.40496141     0.43900
N121        N  0.36558731  0.81749762  0.35342444    -0.33600
N122        N  0.37402523  0.82717976  0.38271527    -0.27900
C123        C  0.39669253  0.80935552  0.39382060    -0.04000
C124        C  0.40297287  0.78781881  0.37008587     0.08300
C125        C  0.38294547  0.79370306  0.34483500     0.02000
H126        H  0.40820012  0.81232836  0.41704593     0.09700
H127        H  0.38089599  0.78138525  0.32198013     0.08800
N128        N  0.33370351  0.90473973  0.42034294    -0.35100
N129        N  0.31163810  0.91833653  0.40386375    -0.27200
C130        C  0.30253989  0.94308959  0.42053339    -0.02500
C131        C  0.31970694  0.94503570  0.44871285     0.06100
C132        C  0.33923556  0.92051653  0.44793938     0.04200
H133        H  0.28461577  0.95831967  0.41280567     0.09300
H134        H  0.35605765  0.91443725  0.46612935     0.08200
O135        O  0.43618169  0.75377284  0.39796132    -0.71900
O136        O  0.49913607  0.68728673  0.39745602    -0.72900
O137        O  0.50034213  0.75223590  0.39830599    -0.61500
O138        O  0.43497440  0.68884924  0.39739846    -0.69900
O139        O  0.43468764  0.68956020  0.34297271    -0.69400
O140        O  0.50108696  0.75249128  0.34388055    -0.60700
O141        O  0.49949731  0.68831480  0.34303558    -0.73200
O142        O  0.43631039  0.75366052  0.34352743    -0.72000
Cu143      Cu  0.46766521  0.72051450  0.39969998     1.04600
Cu144      Cu  0.46790909  0.72102872  0.34145665     1.04300
C145        C  0.42629406  0.76402702  0.37066047     0.94300
C146        C  0.50921024  0.67742851  0.37008022     0.93500
C147        C  0.51100040  0.76234986  0.37131839     0.85600
C148        C  0.42448644  0.67927500  0.37012314     0.91900
N149        N  0.66501207  0.87729472  0.33570288    -0.26200
N150        N  0.65129822  0.85455354  0.32046200    -0.34100
C151        C  0.66682260  0.84782071  0.29303158     0.02100
C152        C  0.69132048  0.86725478  0.29100837     0.08100
C153        C  0.68962575  0.88564567  0.31831034    -0.05000
H154        H  0.66055289  0.83025199  0.27576619     0.08800
H155        H  0.70493882  0.90387488  0.32494715     0.10000
Cu156      Cu  0.61195609  0.83355740  0.33691167     0.44200
Cu157      Cu  0.64955248  0.89633182  0.37913086     0.42000
Cu158      Cu  0.58337379  0.85906097  0.41409007     0.43900
N159        N  0.57401796  0.81469511  0.35912513    -0.33600
N160        N  0.56434656  0.82333883  0.38831815    -0.27900
C161        C  0.54059793  0.80595101  0.39712845    -0.04000
C162        C  0.53479313  0.78569017  0.37204295     0.08300
C163        C  0.55629414  0.79189623  0.34824346     0.02000
H164        H  0.52823814  0.80817044  0.41993913     0.09700
H165        H  0.55928052  0.78027645  0.32509191     0.08800
N166        N  0.60451410  0.89640498  0.43482299    -0.35100
N167        N  0.62856204  0.91013287  0.42215704    -0.27200
C168        C  0.63627314  0.93370371  0.44145245    -0.02500
C169        C  0.61610006  0.93464326  0.46731627     0.06100
C170        C  0.59627039  0.91083169  0.46245347     0.04200
H171        H  0.65503683  0.94901908  0.43687944     0.09300
H172        H  0.57717398  0.90450682  0.47770496     0.08200
N173        N  0.27215348  0.56424884  0.32879531    -0.26200
N174        N  0.28548349  0.58766553  0.31435271    -0.34100
C175        C  0.27012322  0.59465126  0.28687041     0.02100
C176        C  0.24614051  0.57466073  0.28401567     0.08100
C177        C  0.24796324  0.55569425  0.31086749    -0.05000
H178        H  0.27605133  0.61287443  0.27023211     0.08800
H179        H  0.23292499  0.53706865  0.31694857     0.10000
Cu180      Cu  0.32392372  0.60921371  0.33234174     0.44200
Cu181      Cu  0.28728181  0.54492539  0.37214499     0.42000
Cu182      Cu  0.35102494  0.58246456  0.41061185     0.43900
N183        N  0.36128112  0.62757141  0.35613444    -0.33600
N184        N  0.37034832  0.61854339  0.38545803    -0.27900
C185        C  0.39406623  0.63566994  0.39492671    -0.04000
C186        C  0.40049030  0.65612969  0.37017110     0.08300
C187        C  0.37937220  0.65034255  0.34587862     0.02000
H188        H  0.40603967  0.63308909  0.41794522     0.09700
H189        H  0.37694233  0.66217126  0.32275524     0.08800
N190        N  0.32981592  0.54440091  0.42991812    -0.35100
N191        N  0.30658558  0.53054450  0.41577694    -0.27200
C192        C  0.29831315  0.50656088  0.43420968    -0.02500
C193        C  0.31726596  0.50544961  0.46110035     0.06100
C194        C  0.33698118  0.52961254  0.45772019     0.04200
H195        H  0.27995132  0.49112120  0.42839136     0.09300
H196        H  0.35523454  0.53594826  0.47411680     0.08200
N197        N  0.65561295  0.55857455  0.31885107    -0.26200
N198        N  0.64220137  0.58283620  0.30627495    -0.34100
C199        C  0.65707826  0.59133516  0.27898144     0.02100
C200        C  0.68086843  0.57143001  0.27425548     0.08100
C201        C  0.67942038  0.55095528  0.29985270    -0.05000
H202        H  0.65113371  0.61070180  0.26392433     0.08800
H203        H  0.69462516  0.53211423  0.30451445     0.10000
Cu204      Cu  0.60483872  0.60386480  0.32713319     0.44200
Cu205      Cu  0.64118173  0.53759035  0.36166132     0.42000
Cu206      Cu  0.57914030  0.57570378  0.40493662     0.43900
N207        N  0.56938256  0.62318414  0.35312062    -0.33600
N208        N  0.56068826  0.61371559  0.38240206    -0.27900
C209        C  0.53818638  0.63180693  0.39329538    -0.04000
C210        C  0.53225765  0.65335795  0.36944720     0.08300
C211        C  0.55233089  0.64716982  0.34429715     0.02000
H212        H  0.52659499  0.62905820  0.41650597     0.09700
H213        H  0.55466340  0.65943775  0.32142271     0.08800
N214        N  0.60027916  0.53632358  0.42116321    -0.35100
N215        N  0.62266098  0.52243290  0.40549681    -0.27200
C216        C  0.63114698  0.49778302  0.42277743    -0.02500
C217        C  0.61323238  0.49624256  0.45045797     0.06100
C218        C  0.59392672  0.52086928  0.44877400     0.04200
H219        H  0.64909317  0.48229778  0.41575690     0.09300
H220        H  0.57663840  0.52720836  0.46632543     0.08200
O221        O  0.93457816  0.69033675  0.14690415    -0.71900
O222        O  0.00083115  0.75356623  0.14616093    -0.72900
O223        O  0.93592348  0.75449766  0.14721977    -0.61500
O224        O  0.99943679  0.68937344  0.14629724    -0.69900
O225        O  0.99867328  0.68893090  0.09187636    -0.69400
O226        O  0.93556512  0.75528351  0.09279550    -0.60700
O227        O  0.99975898  0.75384673  0.09174570    -0.73200
O228        O  0.93454219  0.69040282  0.09247268    -0.72000
Cu229      Cu  0.96771504  0.72195108  0.14855203     1.04600
Cu230      Cu  0.96711216  0.72212857  0.09031392     1.04300
C231        C  0.92426799  0.68038743  0.11966652     0.94300
C232        C  0.01064607  0.76363727  0.11874200     0.93500
C233        C  0.92574969  0.76516572  0.12027164     0.85600
C234        C  0.00899168  0.67881178  0.11905869     0.91900
N235        N  0.12975980  0.91029667  0.06789356    -0.26200
N236        N  0.10561603  0.89682337  0.05515811    -0.34100
C237        C  0.09718656  0.91179031  0.02788812     0.02100
C238        C  0.11700020  0.93569764  0.02333964     0.08100
C239        C  0.13736051  0.93422732  0.04901760    -0.05000
H240        H  0.07791683  0.90582803  0.01272501     0.08800
H241        H  0.15611548  0.94949245  0.05381191     0.10000
Cu242      Cu  0.08451510  0.85927622  0.07570418     0.44200
Cu243      Cu  0.15072058  0.89578770  0.11068582     0.42000
Cu244      Cu  0.11265826  0.83327519  0.15321917     0.43900
N245        N  0.06499836  0.82378564  0.10160076    -0.33600
N246        N  0.07449728  0.81500340  0.13083792    -0.27900
C247        C  0.05635093  0.79254567  0.14178345    -0.04000
C248        C  0.03471673  0.78671767  0.11802192     0.08300
C249        C  0.04092410  0.80682275  0.09285472     0.02000
H250        H  0.05913406  0.78088887  0.16496335     0.09700
H251        H  0.02862379  0.80921909  0.07001627     0.08800
N252        N  0.15217102  0.85407459  0.16956122    -0.35100
N253        N  0.16603027  0.87665910  0.15415768    -0.27200
C254        C  0.19078867  0.88483274  0.17138841    -0.02500
C255        C  0.19244910  0.86649825  0.19876047     0.06100
C256        C  0.16775810  0.84727943  0.19695765     0.04200
H257        H  0.20626303  0.90286688  0.16455399     0.09300
H258        H  0.16145272  0.82976478  0.21429965     0.08200
N259        N  0.15876433  0.56233265  0.16499778    -0.26200
N260        N  0.14447035  0.58530454  0.17912299    -0.34100
C261        C  0.15911900  0.59277007  0.20689821     0.02100
C262        C  0.18365201  0.57352696  0.21028340     0.11700
C263        C  0.18289611  0.55453204  0.18342211    -0.05000
H264        H  0.15238987  0.61086051  0.22331975     0.08800
H265        H  0.19862076  0.53639662  0.17767337     0.10000
Cu266      Cu  0.10594219  0.60573756  0.15993128     0.44200
Cu267      Cu  0.14458481  0.54255391  0.12155582     0.42000
Cu268      Cu  0.07922165  0.57800735  0.08217505     0.43900
N269        N  0.06970524  0.62476472  0.13479954    -0.33600
N270        N  0.06068122  0.61547962  0.10557456    -0.27900
C271        C  0.03791772  0.63350122  0.09515732    -0.04000
C272        C  0.03214199  0.65481553  0.11924747     0.08300
C273        C  0.05258586  0.64855635  0.14405550     0.02000
H274        H  0.02610328  0.63090747  0.07205886     0.09700
H275        H  0.05518376  0.66071705  0.16694667     0.08800
N276        N  0.10106489  0.53960862  0.06449491    -0.35100
N277        N  0.12484389  0.52675274  0.07873361    -0.27200
C278        C  0.13343973  0.50243583  0.06103748    -0.02500
C279        C  0.11412689  0.50003377  0.03455795     0.06100
C280        C  0.09389035  0.52380755  0.03737993     0.04200
H281        H  0.15232469  0.48770349  0.06702427     0.09300
H282        H  0.07537819  0.52930083  0.02096626     0.08200
N283        N  0.77822764  0.88252093  0.17196643    -0.26200
N284        N  0.79191493  0.85846555  0.18468364    -0.34100
C285        C  0.77736415  0.85018599  0.21225631     0.02100
C286        C  0.75350808  0.86999942  0.21700411     0.08100
C287        C  0.75456994  0.89019838  0.19114545    -0.05000
H288        H  0.78364311  0.83108947  0.22755808     0.08800
H289        H  0.73929578  0.90898828  0.18651698     0.10000
Cu290      Cu  0.82935118  0.83743879  0.16394106     0.44200
Cu291      Cu  0.79224504  0.90365008  0.12908334     0.42000
Cu292      Cu  0.85535899  0.86697727  0.08692466     0.43900
N293        N  0.86498710  0.81860191  0.13780649    -0.33600
N294        N  0.87378697  0.82861327  0.10877285    -0.27900
C295        C  0.89646507  0.81085426  0.09767179    -0.04000
C296        C  0.90243276  0.78897170  0.12114943     0.08300
C297        C  0.88216607  0.79459508  0.14628151     0.02000
H298        H  0.90820193  0.81410314  0.07461883     0.09700
H299        H  0.87983177  0.78196285  0.16892694     0.08800
N300        N  0.83423745  0.90634155  0.07065438    -0.35100
N301        N  0.81131803  0.91970924  0.08592261    -0.27200
C302        C  0.80271568  0.94432871  0.06866106    -0.02500
C303        C  0.82112196  0.94639347  0.04139441     0.06100
C304        C  0.84083611  0.92210035  0.04330880     0.04200
H305        H  0.78425177  0.95933647  0.07530842     0.09300
H306        H  0.85843247  0.91607815  0.02598068     0.08200
N307        N  0.77087802  0.56553765  0.15687307    -0.26200
N308        N  0.78445189  0.58818608  0.17239833    -0.34100
C309        C  0.76872874  0.59464128  0.19979547     0.02100
C310        C  0.74424919  0.57511268  0.20143801     0.08100
C311        C  0.74617693  0.55697542  0.17397520    -0.05000
H312        H  0.77478860  0.61213547  0.21724127     0.08800
H313        H  0.73092927  0.53880676  0.16699469     0.10000
Cu314      Cu  0.82370555  0.60938959  0.15584663     0.44200
Cu315      Cu  0.78653174  0.54693425  0.11339584     0.42000
Cu316      Cu  0.85152745  0.58399007  0.07717800     0.43900
N317        N  0.86129484  0.62812030  0.13269651    -0.33600
N318        N  0.87054305  0.61960052  0.10327331    -0.27900
C319        C  0.89421688  0.63697216  0.09421812    -0.04000
C320        C  0.90044367  0.65707147  0.11932381     0.08300
C321        C  0.87924446  0.65082080  0.14341521     0.02000
H322        H  0.90626086  0.63484079  0.07119643     0.09700
H323        H  0.87661495  0.66233871  0.16667525     0.08800
N324        N  0.83041693  0.54638215  0.05682111    -0.35100
N325        N  0.80667763  0.53269340  0.07015899    -0.27200
C326        C  0.79861402  0.50894445  0.05130915    -0.02500
C327        C  0.81823401  0.50780712  0.02497787     0.06100
C328        C  0.83812515  0.53172636  0.02912627     0.04200
H329        H  0.77995219  0.49366434  0.05647772     0.09300
H330        H  0.85686785  0.53797292  0.01333661     0.08200
O331        O  0.99708120  0.18911130  0.89645998    -0.71900
O332        O  0.93382659  0.25522262  0.89609818    -0.72900
O333        O  0.93294362  0.19030871  0.89680110    -0.61500
O334        O  0.99796962  0.25397841  0.89609930    -0.69900
O335        O  0.99840548  0.25343648  0.84167519    -0.69400
O336        O  0.93212760  0.19023365  0.84237886    -0.60700
O337        O  0.93351692  0.25447818  0.84167542    -0.73200
O338        O  0.99698980  0.18928390  0.84202633    -0.72000
Cu339      Cu  0.96544793  0.22216752  0.89826761     1.04600
Cu340      Cu  0.96524648  0.22184354  0.84002607     1.04300
C341        C  0.00703220  0.17892918  0.86917709     0.94300
C342        C  0.92373842  0.26519055  0.86875813     0.93500
C343        C  0.92227172  0.18025496  0.86981511     0.85600
C344        C  0.00850927  0.26366556  0.86888369     0.91900
N345        N  0.12655286  0.41178984  0.91643846    -0.26200
N346        N  0.10295918  0.39809985  0.93008053    -0.34100
C347        C  0.09540919  0.41290914  0.95772539     0.02100
C348        C  0.11524554  0.43691682  0.96151355     0.08100
C349        C  0.13467450  0.43568711  0.93503397    -0.05000
H350        H  0.07680741  0.40670398  0.97372640     0.08800
H351        H  0.15324713  0.45099676  0.92959492     0.10000
Cu352      Cu  0.08176325  0.36026070  0.91028748     0.44200
Cu353      Cu  0.14648947  0.39735942  0.87319959     0.42000
Cu354      Cu  0.10965113  0.33361685  0.83242706     0.43900
N355        N  0.06255046  0.32433343  0.88482101    -0.33600
N356        N  0.07191669  0.31533307  0.85561594    -0.27900
C357        C  0.05387517  0.29262816  0.84511182    -0.04000
C358        C  0.03246670  0.28685935  0.86912190     0.08300
C359        C  0.03868324  0.30725426  0.89397042     0.02000
H360        H  0.05656435  0.28079487  0.82204169     0.09700
H361        H  0.02649939  0.30979002  0.91685464     0.08800
N362        N  0.14847236  0.35500408  0.81513950    -0.35100
N363        N  0.16187109  0.37817237  0.82993497    -0.27200
C364        C  0.18624216  0.38674234  0.81229694    -0.02500
C365        C  0.18811267  0.36804912  0.78526957     0.06100
C366        C  0.16397346  0.34820093  0.78771333     0.04200
H367        H  0.20131772  0.40525339  0.81864310     0.09300
H368        H  0.15798710  0.33025005  0.77078906     0.08200
N369        N  0.12202676  0.02550947  0.90556692    -0.26200
N370        N  0.09964794  0.03922521  0.92139602    -0.34100
C371        C  0.09355343  0.02366880  0.94902434     0.02100
C372        C  0.11303888  0.99914908  0.95051446     0.08100
C373        C  0.13077069  0.00087651  0.92271359    -0.05000
H374        H  0.07631936  0.02985091  0.96670260     0.08800
H375        H  0.14876710  0.98552188  0.91551661     0.10000
Cu376      Cu  0.07826321  0.07843596  0.90499837     0.44200
Cu377      Cu  0.14005951  0.04086475  0.86161170     0.42000
Cu378      Cu  0.10314239  0.10622426  0.82613472     0.43900
N379        N  0.05943034  0.11605535  0.88200135    -0.33600
N380        N  0.06781127  0.12532623  0.85252628    -0.27900
C381        C  0.05039108  0.14898698  0.84354752    -0.04000
C382        C  0.03038864  0.15516745  0.86874866     0.08300
C383        C  0.03675801  0.13397213  0.89283064     0.02000
H384        H  0.05238994  0.16101721  0.82048695     0.09700
H385        H  0.02532576  0.13130673  0.91614041     0.08800
N386        N  0.14029913  0.08492734  0.80513790    -0.35100
N387        N  0.15395010  0.06100860  0.81816144    -0.27200
C388        C  0.17747587  0.05294325  0.79897999    -0.02500
C389        C  0.17849396  0.07275577  0.77276915     0.06100
C390        C  0.15474013  0.09275177  0.77733656     0.04200
H391        H  0.19274268  0.03420720  0.80389149     0.09300
H392        H  0.14850623  0.11169882  0.76179690     0.08200
N393        N  0.80401809  0.03352764  0.92267025    -0.26200
N394        N  0.82853104  0.04687303  0.93473606    -0.34100
C395        C  0.83719654  0.03222858  0.96211403     0.02100
C396        C  0.81716686  0.00865749  0.96743884     0.08100
C397        C  0.79642799  0.00998276  0.94210576    -0.05000
H398        H  0.85672847  0.03822791  0.97686865     0.08800
H399        H  0.77737140  0.99492406  0.93797068     0.10000
Cu400      Cu  0.84973233  0.08394375  0.91342574     0.44200
Cu401      Cu  0.78238591  0.04776017  0.88012891     0.42000
Cu402      Cu  0.82047996  0.10970275  0.83655910     0.43900
N403        N  0.86882683  0.11943020  0.88725175    -0.33600
N404        N  0.85891769  0.12817664  0.85816834    -0.27900
C405        C  0.87670604  0.15086047  0.84706320    -0.04000
C406        C  0.89850120  0.15687796  0.87060748     0.08300
C407        C  0.89279028  0.13663049  0.89576683     0.02000
H408        H  0.87350896  0.16259959  0.82399201     0.09700
H409        H  0.90530175  0.13435782  0.91848331     0.08800
N410        N  0.78065527  0.08905906  0.82092469    -0.35100
N411        N  0.76675478  0.06669891  0.83666518    -0.27200
C412        C  0.74193856  0.05840993  0.81958320    -0.02500
C413        C  0.74030366  0.07643571  0.79196365     0.06100
C414        C  0.76504887  0.09559225  0.79347595     0.04200
H415        H  0.72651443  0.04038613  0.82657959     0.09300
H416        H  0.77148381  0.11276782  0.77579682     0.08200
N417        N  0.80939832  0.41899737  0.90664180    -0.26200
N418        N  0.83220990  0.40523803  0.92173830    -0.34100
C419        C  0.83898624  0.42062418  0.94924942     0.02100
C420        C  0.81951771  0.44508115  0.95146728     0.08100
C421        C  0.80105593  0.44350101  0.92420306    -0.05000
H422        H  0.85672983  0.41439651  0.96633285     0.08800
H423        H  0.78290121  0.45891016  0.91760792     0.10000
Cu424      Cu  0.85350226  0.36625191  0.90475680     0.44200
Cu425      Cu  0.79037745  0.40402028  0.86298585     0.42000
Cu426      Cu  0.82783966  0.33909503  0.82667022     0.43900
N427        N  0.87210292  0.32864110  0.88168152    -0.33600
N428        N  0.86344711  0.31952026  0.85227601    -0.27900
C429        C  0.88056405  0.29567296  0.84317290    -0.04000
C430        C  0.90064113  0.28922886  0.86827206     0.08300
C431        C  0.89463670  0.31047641  0.89236932     0.02000
H432        H  0.87825514  0.28365358  0.82016149     0.09700
H433        H  0.90618077  0.31295438  0.91563996     0.08800
N434        N  0.78996948  0.35992092  0.80655934    -0.35100
N435        N  0.77611292  0.38360302  0.81980534    -0.27200
C436        C  0.75205567  0.39114853  0.80111550    -0.02500
C437        C  0.75090761  0.37123342  0.77502499     0.06100
C438        C  0.77513501  0.35173817  0.77914064     0.04200
H439        H  0.73649799  0.40957135  0.80630101     0.09300
H440        H  0.78141090  0.33284890  0.76357544     0.08200
C441        C  0.81862739  0.46743500  0.97708823    -0.12200
C442        C  0.81827016  0.48593546  0.99885986    -0.13800
C443        C  0.81941321  0.96856725  0.01560550    -0.12200
C444        C  0.81816801  0.98689232  0.99367030    -0.13800
C445        C  0.11497527  0.47757106  0.00907828    -0.12200
C446        C  0.11530334  0.45894911  0.98744509    -0.13800
C447        C  0.11602652  0.95798214  0.99759910    -0.12200
C448        C  0.11477873  0.97669714  0.97603861    -0.13800
C449        C  0.72174718  0.57357384  0.22689039    -0.12200
C450        C  0.70304985  0.57240829  0.24844626    -0.13800
C451        C  0.20554503  0.57344110  0.23637432    -0.12200
C452        C  0.22396493  0.57376699  0.25822440    -0.13800
C453        C  0.73179594  0.86938733  0.24326886    -0.12200
C454        C  0.71348882  0.86855100  0.26521825    -0.13800
C455        C  0.23346000  0.86829246  0.24599631    -0.12200
C456        C  0.21489769  0.86755326  0.22428829    -0.13800
C457        C  0.71000306  0.36922583  0.72766339    -0.12200
C458        C  0.72866216  0.37037924  0.74926440    -0.13800
C459        C  0.61456291  0.47386636  0.47606502    -0.12200
C460        C  0.61520118  0.45535552  0.49784672    -0.13800
C461        C  0.22872436  0.36974668  0.73768984    -0.12200
C462        C  0.21032706  0.36921096  0.75954627    -0.13800
C463        C  0.31715300  0.46480688  0.50875022    -0.12200
C464        C  0.31691937  0.48340385  0.48705644    -0.13800
C465        C  0.69991976  0.07375861  0.74416184    -0.12200
C466        C  0.71814424  0.07484879  0.76618021    -0.13800
C467        C  0.61426622  0.97450802  0.51561005    -0.12200
C468        C  0.61539660  0.95627755  0.49362281    -0.13800
C469        C  0.20023385  0.07302620  0.74650276    -0.12200
C470        C  0.21858738  0.07370259  0.72457917    -0.13800
C471        C  0.31729852  0.96756671  0.47404252    -0.12200
C472        C  0.31558711  0.98630934  0.49549834    -0.13800
loop_ 
_geom_bond_atom_site_label_1 
_geom_bond_atom_site_label_2 
_geom_bond_distance 
_geom_bond_site_symmetry_2 
_ccdc_geom_bond_type 
N1            N2   1.324       .  A
N1            C5   1.346       .  A
N1           Cu9   2.077       .  S
N2            C3   1.345       .  A
N2           Cu8   2.075       .  S
C3            C4   1.379       .  A
C3            H6   1.082       .  S
C4            C5   1.380       .  A
C4          C470   1.437       .  S
C5            H7   1.082       .  S
Cu8          N11   2.074       .  S
Cu9          N19   2.076       .  S
Cu10         N12   2.069       .  S
Cu10         N18   2.069       .  S
N11          N12   1.322       .  A
N11          C15   1.346       .  A
N12          C13   1.344       .  A
C13          C14   1.382       .  A
C13          H16   1.083       .  S
C14          C15   1.383       .  A
C14          C37   1.467       .  S
C15          H17   1.083       .  S
N18          N19   1.323       .  A
N18          C22   1.344       .  A
N19          C20   1.346       .  A
C20          C21   1.380       .  A
C20          H23   1.082   1_545  S
C21          C22   1.378       .  A
C21         C472   1.437   1_545  S
C22          H24   1.082       .  S
O25         Cu33   2.015       .  S
O25          C35   1.278       .  A
O26         Cu33   2.015       .  S
O26          C36   1.278       .  A
O27         Cu33   2.003       .  S
O27          C37   1.277       .  A
O28         Cu33   2.002       .  S
O28          C38   1.277       .  A
O29         Cu34   2.015       .  S
O29          C38   1.278       .  A
O30         Cu34   2.015       .  S
O30          C37   1.278       .  A
O31         Cu34   2.001       .  S
O31          C36   1.276       .  A
O32         Cu34   2.002       .  S
O32          C35   1.276       .  A
Cu33        Cu34   2.377       .  S
C35          C76   1.466       .  S
C36          C52   1.466       .  S
C38         C100   1.466       .  S
N39          N40   1.323       .  A
N39          C43   1.346       .  A
N39         Cu47   2.076       .  S
N40          C41   1.345       .  A
N40         Cu46   2.069       .  S
C41          C42   1.378       .  A
C41          H44   1.082       .  S
C42          C43   1.380       .  A
C42         C465   1.436       .  S
C43          H45   1.082       .  S
Cu46         N49   2.068       .  S
Cu47         N57   2.076       .  S
Cu48         N50   2.072       .  S
Cu48         N56   2.073       .  S
N49          N50   1.322       .  A
N49          C53   1.343       .  A
N50          C51   1.346       .  A
C51          C52   1.383       .  A
C51          H54   1.083       .  S
C52          C53   1.381       .  A
C53          H55   1.083       .  S
N56          N57   1.324       .  A
N56          C60   1.345       .  A
N57          C58   1.346   1_545  A
C58          C59   1.379       .  A
C58          H61   1.082       .  S
C59          C60   1.378   1_565  A
C59         C467   1.436       .  S
C60          H62   1.082       .  S
N63          N64   1.323       .  A
N63          C67   1.345       .  A
N63         Cu71   2.072       .  S
N64          C65   1.345       .  A
N64         Cu70   2.071       .  S
C65          C66   1.378       .  A
C65          H68   1.082       .  S
C66          C67   1.379       .  A
C66         C461   1.435       .  S
C67          H69   1.082       .  S
Cu70         N73   2.070       .  S
Cu71         N81   2.073       .  S
Cu72         N74   2.073       .  S
Cu72         N80   2.073       .  S
N73          N74   1.322       .  A
N73          C77   1.344       .  A
N74          C75   1.346       .  A
C75          C76   1.383       .  A
C75          H78   1.083       .  S
C76          C77   1.381       .  A
C77          H79   1.083       .  S
N80          N81   1.324       .  A
N80          C84   1.345       .  A
N81          C82   1.346       .  A
C82          C83   1.379       .  A
C82          H85   1.082       .  S
C83          C84   1.378       .  A
C83         C463   1.436       .  S
C84          H86   1.082       .  S
N87          N88   1.324       .  A
N87          C91   1.346       .  A
N87         Cu95   2.073       .  S
N88          C89   1.346       .  A
N88         Cu94   2.076       .  S
C89          C90   1.379       .  A
C89          H92   1.082       .  S
C90          C91   1.379       .  A
C90         C457   1.437       .  S
C91          H93   1.082       .  S
Cu94         N97   2.075       .  S
Cu95        N105   2.073       .  S
Cu96         N98   2.070       .  S
Cu96        N104   2.070       .  S
N97          N98   1.322       .  A
N97         C101   1.346       .  A
N98          C99   1.343       .  A
C99         C100   1.381       .  A
C99         H102   1.083       .  S
C100        C101   1.383       .  A
C101        H103   1.083       .  S
N104        N105   1.323       .  A
N104        C108   1.345       .  A
N105        C106   1.346       .  A
C106        C107   1.380       .  A
C106        H109   1.082       .  S
C107        C108   1.379       .  A
C107        C460   1.436       .  S
C108        H110   1.082       .  S
N111        N112   1.322       .  A
N111        C115   1.345       .  A
N111       Cu119   2.072       .  S
N112        C113   1.345       .  A
N112       Cu118   2.069       .  S
C113        C114   1.379       .  A
C113        H116   1.082       .  S
C114        C115   1.380       .  A
C114        C455   1.436       .  S
C115        H117   1.082       .  S
Cu118       N121   2.069       .  S
Cu119       N129   2.072       .  S
Cu120       N122   2.077       .  S
Cu120       N128   2.077       .  S
N121        N122   1.323       .  A
N121        C125   1.343       .  A
N122        C123   1.347       .  A
C123        C124   1.383       .  A
C123        H126   1.083       .  S
C124        C125   1.380       .  A
C124        C145   1.466       .  S
C125        H127   1.083       .  S
N128        N129   1.324       .  A
N128        C132   1.346       .  A
N129        C130   1.345       .  A
C130        C131   1.379       .  A
C130        H133   1.082       .  S
C131        C132   1.380       .  A
C131        C471   1.437       .  S
C132        H134   1.082       .  S
O135       Cu143   2.016       .  S
O135        C145   1.278       .  A
O136       Cu143   2.016       .  S
O136        C146   1.278       .  A
O137       Cu143   2.004       .  S
O137        C147   1.277       .  A
O138       Cu143   2.005       .  S
O138        C148   1.277       .  A
O139       Cu144   2.014       .  S
O139        C148   1.278       .  A
O140       Cu144   2.014       .  S
O140        C147   1.278       .  A
O141       Cu144   2.002       .  S
O141        C146   1.276       .  A
O142       Cu144   2.000       .  S
O142        C145   1.276       .  A
Cu143      Cu144   2.377       .  S
C146        C210   1.467       .  S
C147        C162   1.467       .  S
C148        C186   1.467       .  S
N149        N150   1.324       .  A
N149        C153   1.346       .  A
N149       Cu157   2.076       .  S
N150        C151   1.345       .  A
N150       Cu156   2.074       .  S
C151        C152   1.378       .  A
C151        H154   1.082       .  S
C152        C153   1.380       .  A
C152        C454   1.436       .  S
C153        H155   1.082       .  S
Cu156       N159   2.073       .  S
Cu157       N167   2.075       .  S
Cu158       N160   2.069       .  S
Cu158       N166   2.069       .  S
N159        N160   1.321       .  A
N159        C163   1.346       .  A
N160        C161   1.344       .  A
C161        C162   1.382       .  A
C161        H164   1.083       .  S
C162        C163   1.383       .  A
C163        H165   1.083       .  S
N166        N167   1.323       .  A
N166        C170   1.344       .  A
N167        C168   1.346       .  A
C168        C169   1.380       .  A
C168        H171   1.082       .  S
C169        C170   1.378       .  A
C169        C468   1.436       .  S
C170        H172   1.082       .  S
N173        N174   1.323       .  A
N173        C177   1.346       .  A
N173       Cu181   2.072       .  S
N174        C175   1.345       .  A
N174       Cu180   2.074       .  S
C175        C176   1.379       .  A
C175        H178   1.082       .  S
C176        C177   1.379       .  A
C176        C452   1.436       .  S
C177        H179   1.082       .  S
Cu180       N183   2.073       .  S
Cu181       N191   2.071       .  S
Cu182       N184   2.072       .  S
Cu182       N190   2.072       .  S
N183        N184   1.322       .  A
N183        C187   1.346       .  A
N184        C185   1.344       .  A
C185        C186   1.382       .  A
C185        H188   1.083       .  S
C186        C187   1.383       .  A
C187        H189   1.083       .  S
N190        N191   1.323       .  A
N190        C194   1.345       .  A
N191        C192   1.345       .  A
C192        C193   1.379       .  A
C192        H195   1.082       .  S
C193        C194   1.379       .  A
C193        C464   1.436       .  S
C194        H196   1.082       .  S
N197        N198   1.323       .  A
N197        C201   1.346       .  A
N197       Cu205   2.075       .  S
N198        C199   1.345       .  A
N198       Cu204   2.070       .  S
C199        C200   1.379       .  A
C199        H202   1.082       .  S
C200        C201   1.380       .  A
C200        C450   1.437       .  S
C201        H203   1.082       .  S
Cu204       N207   2.070       .  S
Cu205       N215   2.075       .  S
Cu206       N208   2.073       .  S
Cu206       N214   2.074       .  S
N207        N208   1.322       .  A
N207        C211   1.344       .  A
N208        C209   1.346       .  A
C209        C210   1.383       .  A
C209        H212   1.083       .  S
C210        C211   1.382       .  A
C211        H213   1.083       .  S
N214        N215   1.324       .  A
N214        C218   1.345       .  A
N215        C216   1.346       .  A
C216        C217   1.379       .  A
C216        H219   1.082       .  S
C217        C218   1.378       .  A
C217        C459   1.436       .  S
C218        H220   1.082       .  S
O221       Cu229   2.016       .  S
O221        C231   1.278       .  A
O222       Cu229   2.017   1_455  S
O222        C232   1.278       .  A
O223       Cu229   2.003       .  S
O223        C233   1.276       .  A
O224       Cu229   2.003       .  S
O224        C234   1.276   1_655  A
O225       Cu230   2.016       .  S
O225        C234   1.278   1_655  A
O226       Cu230   2.016       .  S
O226        C233   1.278       .  A
O227       Cu230   2.003       .  S
O227        C232   1.277   1_655  A
O228       Cu230   2.002       .  S
O228        C231   1.276       .  A
Cu229      Cu230   2.377       .  S
C231        C320   1.467       .  S
C232        C248   1.467       .  S
C233        C296   1.467       .  S
C234        C272   1.467       .  S
N235        N236   1.323       .  A
N235        C239   1.346       .  A
N235       Cu243   2.075       .  S
N236        C237   1.345       .  A
N236       Cu242   2.071       .  S
C237        C238   1.378       .  A
C237        H240   1.082       .  S
C238        C239   1.380       .  A
C238        C447   1.437   1_554  S
C239        H241   1.082       .  S
Cu242       N245   2.071       .  S
Cu243       N253   2.075       .  S
Cu244       N246   2.074       .  S
Cu244       N252   2.075       .  S
N245        N246   1.322       .  A
N245        C249   1.344       .  A
N246        C247   1.346       .  A
C247        C248   1.383       .  A
C247        H250   1.083       .  S
C248        C249   1.382       .  A
C249        H251   1.083       .  S
N252        N253   1.324       .  A
N252        C256   1.345       .  A
N253        C254   1.346       .  A
C254        C255   1.379       .  A
C254        H257   1.082       .  S
C255        C256   1.379       .  A
C255        C456   1.436       .  S
C256        H258   1.082       .  S
N259        N260   1.323       .  A
N259        C263   1.346       .  A
N259       Cu267   2.072       .  S
N260        C261   1.345       .  A
N260       Cu266   2.072       .  S
C261        C262   1.379       .  A
C261        H264   1.082       .  S
C262        C263   1.379       .  A
C262        C451   1.436       .  S
C263        H265   1.082       .  S
Cu266       N269   2.072       .  S
Cu267       N277   2.072       .  S
Cu268       N270   2.073       .  S
Cu268       N276   2.074       .  S
N269        N270   1.322       .  A
N269        C273   1.344       .  A
N270        C271   1.346       .  A
C271        C272   1.383       .  A
C271        H274   1.083       .  S
C272        C273   1.382       .  A
C273        H275   1.083       .  S
N276        N277   1.324       .  A
N276        C280   1.345       .  A
N277        C278   1.345       .  A
C278        C279   1.379       .  A
C278        H281   1.082       .  S
C279        C280   1.379       .  A
C279        C445   1.436       .  S
C280        H282   1.082       .  S
N283        N284   1.323       .  A
N283        C287   1.346       .  A
N283       Cu291   2.075       .  S
N284        C285   1.345       .  A
N284       Cu290   2.071       .  S
C285        C286   1.378       .  A
C285        H288   1.082       .  S
C286        C287   1.380       .  A
C286        C453   1.436       .  S
C287        H289   1.082       .  S
Cu290       N293   2.070       .  S
Cu291       N301   2.075       .  S
Cu292       N294   2.073       .  S
Cu292       N300   2.074       .  S
N293        N294   1.322       .  A
N293        C297   1.344       .  A
N294        C295   1.346       .  A
C295        C296   1.383       .  A
C295        H298   1.083       .  S
C296        C297   1.382       .  A
C297        H299   1.083       .  S
N300        N301   1.324       .  A
N300        C304   1.345       .  A
N301        C302   1.346       .  A
C302        C303   1.379       .  A
C302        H305   1.082       .  S
C303        C304   1.379       .  A
C303        C443   1.436       .  S
C304        H306   1.082       .  S
N307        N308   1.324       .  A
N307        C311   1.345       .  A
N307       Cu315   2.073       .  S
N308        C309   1.345       .  A
N308       Cu314   2.076       .  S
C309        C310   1.379       .  A
C309        H312   1.082       .  S
C310        C311   1.379       .  A
C310        C449   1.437       .  S
C311        H313   1.082       .  S
Cu314       N317   2.075       .  S
Cu315       N325   2.072       .  S
Cu316       N318   2.071       .  S
Cu316       N324   2.072       .  S
N317        N318   1.322       .  A
N317        C321   1.346       .  A
N318        C319   1.344       .  A
C319        C320   1.381       .  A
C319        H322   1.083       .  S
C320        C321   1.383       .  A
C321        H323   1.083       .  S
N324        N325   1.323       .  A
N324        C328   1.345       .  A
N325        C326   1.345       .  A
C326        C327   1.379       .  A
C326        H329   1.082       .  S
C327        C328   1.379       .  A
C327        C442   1.437   1_554  S
C328        H330   1.082       .  S
O331       Cu339   2.014       .  S
O331        C341   1.278   1_655  A
O332       Cu339   2.015       .  S
O332        C342   1.278       .  A
O333       Cu339   2.003       .  S
O333        C343   1.277       .  A
O334       Cu339   2.003       .  S
O334        C344   1.277   1_655  A
O335       Cu340   2.016       .  S
O335        C344   1.278   1_655  A
O336       Cu340   2.016       .  S
O336        C343   1.278       .  A
O337       Cu340   2.004       .  S
O337        C342   1.277       .  A
O338       Cu340   2.002       .  S
O338        C341   1.277   1_655  A
Cu339      Cu340   2.377       .  S
C341        C382   1.466       .  S
C342        C430   1.467       .  S
C343        C406   1.467       .  S
C344        C358   1.467       .  S
N345        N346   1.323       .  A
N345        C349   1.345       .  A
N345       Cu353   2.071       .  S
N346        C347   1.345       .  A
N346       Cu352   2.072       .  S
C347        C348   1.379       .  A
C347        H350   1.082       .  S
C348        C349   1.379       .  A
C348        C446   1.436       .  S
C349        H351   1.082       .  S
Cu352       N355   2.072       .  S
Cu353       N363   2.071       .  S
Cu354       N356   2.073       .  S
Cu354       N362   2.074       .  S
N355        N356   1.322       .  A
N355        C359   1.344       .  A
N356        C357   1.346       .  A
C357        C358   1.383       .  A
C357        H360   1.083       .  S
C358        C359   1.382       .  A
C359        H361   1.083       .  S
N362        N363   1.324       .  A
N362        C366   1.345       .  A
N363        C364   1.345       .  A
C364        C365   1.379       .  A
C364        H367   1.082       .  S
C365        C366   1.379       .  A
C365        C462   1.435       .  S
C366        H368   1.082       .  S
N369        N370   1.324       .  A
N369        C373   1.346       .  A
N369       Cu377   2.074       .  S
N370        C371   1.345       .  A
N370       Cu376   2.075       .  S
C371        C372   1.379   1_545  A
C371        H374   1.082       .  S
C372        C373   1.379   1_565  A
C372        C448   1.437       .  S
C373        H375   1.082   1_545  S
Cu376       N379   2.075       .  S
Cu377       N387   2.074       .  S
Cu378       N380   2.070       .  S
Cu378       N386   2.071       .  S
N379        N380   1.322       .  A
N379        C383   1.346       .  A
N380        C381   1.343       .  A
C381        C382   1.381       .  A
C381        H384   1.083       .  S
C382        C383   1.383       .  A
C383        H385   1.082       .  S
N386        N387   1.323       .  A
N386        C390   1.345       .  A
N387        C388   1.346       .  A
C388        C389   1.380       .  A
C388        H391   1.082       .  S
C389        C390   1.379       .  A
C389        C469   1.437       .  S
C390        H392   1.082       .  S
N393        N394   1.323       .  A
N393        C397   1.346       .  A
N393       Cu401   2.076       .  S
N394        C395   1.344       .  A
N394       Cu400   2.070       .  S
C395        C396   1.378       .  A
C395        H398   1.082       .  S
C396        C397   1.380       .  A
C396        C444   1.436   1_545  S
C397        H399   1.082   1_545  S
Cu400       N403   2.069       .  S
Cu401       N411   2.076       .  S
Cu402       N404   2.074       .  S
Cu402       N410   2.075       .  S
N403        N404   1.321       .  A
N403        C407   1.344       .  A
N404        C405   1.346       .  A
C405        C406   1.383       .  A
C405        H408   1.083       .  S
C406        C407   1.382       .  A
C407        H409   1.083       .  S
N410        N411   1.324       .  A
N410        C414   1.345       .  A
N411        C412   1.346       .  A
C412        C413   1.379       .  A
C412        H415   1.082       .  S
C413        C414   1.378       .  A
C413        C466   1.436       .  S
C414        H416   1.082       .  S
N417        N418   1.324       .  A
N417        C421   1.346       .  A
N417       Cu425   2.076       .  S
N418        C419   1.345       .  A
N418       Cu424   2.074       .  S
C419        C420   1.378       .  A
C419        H422   1.082       .  S
C420        C421   1.379       .  A
C420        C441   1.437       .  S
C421        H423   1.082       .  S
Cu424       N427   2.073       .  S
Cu425       N435   2.076       .  S
Cu426       N428   2.071       .  S
Cu426       N434   2.071       .  S
N427        N428   1.322       .  A
N427        C431   1.346       .  A
N428        C429   1.344       .  A
C429        C430   1.382       .  A
C429        H432   1.083       .  S
C430        C431   1.383       .  A
C431        H433   1.083       .  S
N434        N435   1.323       .  A
N434        C438   1.345       .  A
N435        C436   1.346       .  A
C436        C437   1.380       .  A
C436        H439   1.082       .  S
C437        C438   1.378       .  A
C437        C458   1.437       .  S
C438        H440   1.082       .  S
C441        C442   1.206       .  T
C443        C444   1.205   1_554  T
C445        C446   1.205   1_554  T
C447        C448   1.206       .  T
C449        C450   1.206       .  T
C451        C452   1.205       .  T
C453        C454   1.205       .  T
C455        C456   1.205       .  T
C457        C458   1.206       .  T
C459        C460   1.205       .  T
C461        C462   1.205       .  T
C463        C464   1.205       .  T
C465        C466   1.205       .  T
C467        C468   1.205       .  T
C469        C470   1.206       .  T
C471        C472   1.206       .  T
