geometry optimzed in LAMMPS
_audit_creation_date              2020-11-30 
_audit_creation_method            'lammps2cif' 
_symmetry_space_group_name_H-M    'P1' 
_symmetry_Int_Tables_number       1 
_symmetry_cell_setting            triclinic 
loop_ 
_symmetry_equiv_pos_as_xyz 
  x,y,z 
_cell_length_a                    26.305874535695946 
_cell_length_b                    26.67867633076546 
_cell_length_c                    26.253526752406156 
_cell_angle_alpha                 90.12074080048873 
_cell_angle_beta                  89.99956864120611 
_cell_angle_gamma                 90.03038270345118 
loop_ 
_atom_site_label 
_atom_site_type_symbol 
_atom_site_fract_x 
_atom_site_fract_y 
_atom_site_fract_z 
_atom_site_charge 
C1          C  0.29141685  0.07718615  0.66768107     0.03740
C2          C  0.32862781  0.11502311  0.66567687    -0.12410
C3          C  0.36388061  0.11698485  0.62575038     0.01240
C4          C  0.36154626  0.08104586  0.58676976    -0.10940
C5          C  0.32526722  0.04245753  0.58834400     0.03730
C6          C  0.29024637  0.04085541  0.62870112    -0.10360
H7          H  0.32970363  0.14377721  0.69486365     0.09330
H8          H  0.38859506  0.08240068  0.55564682     0.06850
H9          H  0.26202042  0.01134838  0.62951754     0.06700
O10         O  0.52311856  0.17238550  0.58513194    -0.71170
O11         O  0.42209643  0.27382794  0.58371303    -0.71390
O12         O  0.52367424  0.27297342  0.58433246    -0.71250
O13         O  0.42144720  0.17261176  0.58417393    -0.71250
O14         O  0.42033112  0.17395414  0.66692189    -0.71210
O15         O  0.52383053  0.27323720  0.66709506    -0.71230
O16         O  0.42133222  0.27427328  0.66648311    -0.71170
O17         O  0.52279578  0.17308808  0.66787462    -0.71360
V18         V  0.47253735  0.22296086  0.58596295     1.35240
V19         V  0.47204821  0.22362612  0.66549033     1.35170
C20         C  0.54031990  0.15557924  0.62670157     0.78070
C21         C  0.40457989  0.29141833  0.62488923     0.78130
C22         C  0.54135332  0.29000427  0.62563998     0.78000
C23         C  0.40346224  0.15616070  0.62553384     0.77960
C24         C  0.64749117  0.07050186  0.66923622     0.03740
C25         C  0.61064571  0.10852027  0.66949364    -0.12410
C26         C  0.57941204  0.11601175  0.62689539     0.01240
C27         C  0.58545197  0.08525451  0.58404053    -0.10940
C28         C  0.62064651  0.04570093  0.58396187     0.03730
C29         C  0.65164406  0.03852906  0.62691448    -0.10360
H30         H  0.60735828  0.13303214  0.70230747     0.09330
H31         H  0.56181576  0.09144807  0.55083769     0.06850
H32         H  0.67882606  0.00804535  0.62769676     0.06700
C33         C  0.32558062  0.40276885  0.58238496     0.03740
C34         C  0.28806720  0.40308229  0.62081556    -0.12410
C35         C  0.29112314  0.37034727  0.66272729     0.01240
C36         C  0.32893197  0.33323099  0.66310668    -0.10940
C37         C  0.36531779  0.33082662  0.62434331     0.03730
C38         C  0.36432886  0.36633269  0.58514010    -0.10360
H39         H  0.25690618  0.42936303  0.61887541     0.09330
H40         H  0.32987664  0.30594201  0.69361545     0.06850
H41         H  0.39462560  0.36576715  0.55724570     0.06700
C42         C  0.65050652  0.37304885  0.66708269     0.03740
C43         C  0.65350562  0.40625515  0.62572631    -0.12410
C44         C  0.62109001  0.40044054  0.58355104     0.01240
C45         C  0.58532032  0.36134726  0.58356384    -0.10940
C46         C  0.58092174  0.32906181  0.62530255     0.03730
C47         C  0.61411104  0.33461893  0.66662288    -0.10360
H48         H  0.68090051  0.43659379  0.62653479     0.09330
H49         H  0.56015270  0.35659762  0.55122119     0.06850
H50         H  0.61258930  0.30812187  0.69778426     0.06700
C51         C  0.29314913  0.87023024  0.33766803     0.03740
C52         C  0.29031011  0.90425697  0.37856718    -0.12410
C53         C  0.32683801  0.90328985  0.41783496     0.01240
C54         C  0.36497087  0.86630252  0.41647527    -0.10940
C55         C  0.36737234  0.83149954  0.37649528     0.03730
C56         C  0.33202892  0.83429572  0.33679096    -0.10360
H57         H  0.25982124  0.93150454  0.37956995     0.09330
H58         H  0.39357885  0.86507219  0.44614130     0.06850
H59         H  0.33379485  0.80746922  0.30576197     0.06700
O60         O  0.42339899  0.77454306  0.41785853    -0.71170
O61         O  0.52438427  0.67302688  0.41804233    -0.71390
O62         O  0.52497094  0.77377955  0.41841052    -0.71250
O63         O  0.42263221  0.67325870  0.41736202    -0.71250
O64         O  0.42275411  0.67407761  0.33460716    -0.71210
O65         O  0.52577321  0.77343078  0.33564696    -0.71230
O66         O  0.52506882  0.67347624  0.33529324    -0.71170
O67         O  0.42350258  0.77440855  0.33508631    -0.71360
V68         V  0.47379382  0.72365005  0.41632096     1.35240
V69         V  0.47423071  0.72383885  0.33678823     1.35170
C70         C  0.40642529  0.79193407  0.37645993     0.78070
C71         C  0.54212802  0.65615394  0.37668546     0.78130
C72         C  0.54291501  0.79053659  0.37714397     0.78000
C73         C  0.40539207  0.65642409  0.37572267     0.77960
C74         C  0.65117980  0.87356731  0.33432617     0.03740
C75         C  0.65251832  0.90886787  0.37401925    -0.12410
C76         C  0.61966461  0.90418506  0.41598719     0.01240
C77         C  0.58620954  0.86317381  0.41816388    -0.10940
C78         C  0.58223975  0.82977187  0.37716287     0.03730
C79         C  0.61492618  0.83505223  0.33542039    -0.10360
H80         H  0.67893698  0.93997220  0.37196571     0.09330
H81         H  0.56170626  0.85846232  0.45098295     0.06850
H82         H  0.61309549  0.80837540  0.30426495     0.06700
C83         C  0.29723686  0.57356908  0.33073920     0.03740
C84         C  0.29431913  0.53912060  0.37107870    -0.12410
C85         C  0.32798800  0.54244271  0.41240258     0.01240
C86         C  0.36337179  0.58170190  0.41453486    -0.10940
C87         C  0.36644224  0.61666071  0.37481741     0.03730
C88         C  0.33313327  0.61253197  0.33325782    -0.10360
H89         H  0.26681848  0.50887871  0.36981649     0.09330
H90         H  0.38929737  0.58417801  0.44654447     0.06850
H91         H  0.33479065  0.64004053  0.30298849     0.06700
C92         C  0.64737006  0.56997482  0.33231264     0.03740
C93         C  0.61241223  0.60960320  0.33400756    -0.12410
C94         C  0.58104345  0.61646989  0.37655888     0.01240
C95         C  0.58576047  0.58411900  0.41826141    -0.10940
C96         C  0.61825094  0.54235696  0.41606338     0.03730
C97         C  0.64967170  0.53606670  0.37312150    -0.10360
H98         H  0.61024833  0.63560351  0.30241080     0.09330
H99         H  0.56253656  0.59030807  0.45175689     0.06850
H100        H  0.67531472  0.50437774  0.37086397     0.06700
O101        O  0.92133968  0.77269189  0.08481367    -0.71170
O102        O  0.02207153  0.67100221  0.08521824    -0.71390
O103        O  0.92062367  0.67156374  0.08542352    -0.71250
O104        O  0.02283318  0.77225390  0.08502994    -0.71250
O105        O  0.02307987  0.77205776  0.16779021    -0.71210
O106        O  0.92009068  0.67227775  0.16818527    -0.71230
O107        O  0.02258465  0.67158434  0.16797990    -0.71170
O108        O  0.92073195  0.77271099  0.16757535    -0.71360
V109        V  0.97171357  0.72186395  0.08675041     1.35240
V110        V  0.97163465  0.72216438  0.16627902     1.35170
C111        C  0.90392836  0.79010279  0.12606027     0.78070
C112        C  0.03942763  0.65386204  0.12654795     0.78130
C113        C  0.90305725  0.65467701  0.12684446     0.78000
C114        C  0.04024266  0.78942158  0.12644826     0.77960
C115        C  0.15244040  0.86868423  0.16775472     0.03740
C116        C  0.11427604  0.83185027  0.16719391    -0.12410
C117        C  0.07957545  0.82884181  0.12676430     0.01240
C118        C  0.08235999  0.86393984  0.08714555    -0.10940
C119        C  0.11911683  0.90211509  0.08804947     0.03730
C120        C  0.15479828  0.90356388  0.12778104    -0.10360
H121        H  0.11247475  0.80457879  0.19769098     0.09330
H122        H  0.05528822  0.86227287  0.05605205     0.06850
H123        H  0.18418272  0.93203704  0.12772527     0.06700
C124        C  0.15337123  0.57562290  0.16382584     0.03740
C125        C  0.11474034  0.61176900  0.16516352    -0.12410
C126        C  0.07866863  0.61437178  0.12611563     0.01240
C127        C  0.08059489  0.57952030  0.08609184    -0.10940
C128        C  0.11967612  0.54345434  0.08321495     0.03730
C129        C  0.15703918  0.54316133  0.12172563    -0.10360
H130        H  0.11365914  0.63883379  0.19596013     0.09330
H131        H  0.05095261  0.58028725  0.05747907     0.06850
H132        H  0.18858409  0.51720824  0.11965396     0.06700
C133        C  0.79155199  0.87004862  0.16501637     0.03740
C134        C  0.82983809  0.83339935  0.16571114    -0.12410
C135        C  0.86488506  0.82971159  0.12566863     0.01240
C136        C  0.86245266  0.86409934  0.08535303    -0.10940
C137        C  0.82560260  0.90209504  0.08521795     0.03730
C138        C  0.78926655  0.90393696  0.12426427    -0.10360
H139        H  0.83148444  0.80688344  0.19689809     0.09330
H140        H  0.88990056  0.86210689  0.05461500     0.06850
H141        H  0.76027240  0.93278379  0.12367802     0.06700
C142        C  0.78996896  0.57489985  0.16482000     0.03740
C143        C  0.78664021  0.54268197  0.12253492    -0.12410
C144        C  0.82389027  0.54363000  0.08404567     0.01240
C145        C  0.86227443  0.58034775  0.08670214    -0.10940
C146        C  0.86379972  0.61519051  0.12663915     0.03730
C147        C  0.82811803  0.61176136  0.16611296    -0.10360
H148        H  0.75569170  0.51601858  0.12051210     0.09330
H149        H  0.89193975  0.58144983  0.05812557     0.06850
H150        H  0.82967005  0.63798803  0.19766230     0.06700
O151        O  0.02187986  0.17139823  0.91835806    -0.71170
O152        O  0.92126674  0.27347855  0.91751990    -0.71390
O153        O  0.92033529  0.17232387  0.91776960    -0.71250
O154        O  0.02298543  0.27265436  0.91803763    -0.71250
O155        O  0.02364734  0.27150236  0.83528564    -0.71210
O156        O  0.92025149  0.17232430  0.83499065    -0.71230
O157        O  0.92130411  0.27256425  0.83476181    -0.71170
O158        O  0.02267116  0.17125581  0.83559012    -0.71360
V159        V  0.97161900  0.22244920  0.91632160     1.35240
V160        V  0.97197095  0.22193585  0.83678959     1.35170
C161        C  0.03936091  0.15390753  0.87712900     0.78070
C162        C  0.90413357  0.29039484  0.87597332     0.78130
C163        C  0.90291085  0.15520259  0.87633519     0.78000
C164        C  0.04077521  0.28917072  0.87658548     0.77960
C165        C  0.11812656  0.40385542  0.91251470     0.03740
C166        C  0.15171027  0.40653540  0.87099396    -0.12410
C167        C  0.14839319  0.37162329  0.83100586     0.01240
C168        C  0.11370553  0.33188150  0.83462376    -0.10940
C169        C  0.08008276  0.32859488  0.87593371     0.03730
C170        C  0.08283671  0.36441051  0.91509653    -0.10360
H171        H  0.17955648  0.43645003  0.86926950     0.09330
H172        H  0.11245536  0.30388150  0.80464899     0.06850
H173        H  0.05678568  0.36240182  0.94702008     0.06700
C174        C  0.11676861  0.04100794  0.91807434     0.03740
C175        C  0.07941571  0.07879354  0.91685228    -0.12410
C176        C  0.07839718  0.11428545  0.87754577     0.01240
C177        C  0.11491644  0.11188778  0.83880890    -0.10940
C178        C  0.15307999  0.07526307  0.83985303     0.03730
C179        C  0.15366104  0.03973759  0.87923397    -0.10360
H180        H  0.05029958  0.08007431  0.94601680     0.09330
H181        H  0.11428057  0.13906530  0.80816673     0.06850
H182        H  0.18331297  0.01159537  0.87978097     0.06700
C183        C  0.79146460  0.07438399  0.83587783     0.03740
C184        C  0.78980294  0.03994655  0.87642124    -0.12410
C185        C  0.82614491  0.04161113  0.91577124     0.01240
C186        C  0.86319866  0.07965020  0.91489205    -0.10940
C187        C  0.86376609  0.11569690  0.87626161     0.03730
C188        C  0.82769850  0.11312344  0.83712602    -0.10360
H189        H  0.76064486  0.01133982  0.87686847     0.09330
H190        H  0.89246917  0.08083326  0.94390211     0.06850
H191        H  0.82784851  0.14141440  0.80757871     0.06700
C192        C  0.79496136  0.37274592  0.83295680     0.03740
C193        C  0.79219934  0.40682894  0.87366471    -0.12410
C194        C  0.82675964  0.40400054  0.91415964     0.01240
C195        C  0.86256004  0.36511186  0.91545298    -0.10940
C196        C  0.86529558  0.33023390  0.87547256     0.03730
C197        C  0.83132994  0.33418366  0.83445108    -0.10360
H198        H  0.76422071  0.43664038  0.87319694     0.09330
H199        H  0.88895763  0.36278295  0.94706753     0.06850
H200        H  0.83279986  0.30686634  0.80387903     0.06700
C201        C  0.80851926  0.42433209  0.00391573    -0.11660
C202        C  0.82472342  0.44099681  0.95600963     0.05350
C203        C  0.84135522  0.49115992  0.95019261    -0.06950
C204        C  0.83831712  0.52367693  0.99214306    -0.07690
C205        C  0.82324678  0.50703422  0.04072584    -0.02240
C206        C  0.80913265  0.45600616  0.04661470     0.04580
N207        N  0.79838801  0.43468265  0.09563796     0.67080
H208        H  0.79754334  0.38543334  0.00858120     0.15980
H209        H  0.84839270  0.56261801  0.98655241     0.15690
N210        N  0.86454596  0.50931280  0.90389064     0.74790
O211        O  0.76286945  0.40319162  0.10046864    -0.38660
O212        O  0.82859125  0.44172426  0.13233639    -0.38610
O213        O  0.85158423  0.49276754  0.86078012    -0.39310
O214        O  0.89739414  0.54380533  0.90596098    -0.39380
C215        C  0.83643906  0.02220558  0.00806422    -0.11660
C216        C  0.82540552  0.00479617  0.95865398     0.05350
C217        C  0.81451427  0.95315629  0.95172662    -0.06950
C218        C  0.81261487  0.92151286  0.99432730    -0.07690
C219        C  0.82447519  0.93902129  0.04332465    -0.02240
C220        C  0.83822808  0.98998987  0.05020363     0.04580
N221        N  0.85736610  0.00949785  0.09790189     0.67080
H222        H  0.84424362  0.06162090  0.01411024     0.15980
H223        H  0.80404973  0.88210409  0.98892370     0.15690
N224        N  0.80836792  0.93143843  0.90196084     0.74790
O225        O  0.88739561  0.04645685  0.09794052    -0.38660
O226        O  0.84363654  0.99160326  0.14012469    -0.38610
O227        O  0.83939592  0.94186231  0.86684957    -0.39310
O228        O  0.77649340  0.89669139  0.89497399    -0.39380
C229        C  0.10616151  0.52382052  0.99090643    -0.11660
C230        C  0.12110027  0.50710999  0.03951344     0.05350
C231        C  0.13584062  0.45625007  0.04506573    -0.06950
C232        C  0.13682904  0.42476029  0.00216574    -0.07690
C233        C  0.12051047  0.44132042  0.95420677    -0.02240
C234        C  0.10351700  0.49148632  0.94861031     0.04580
N235        N  0.08046398  0.50991749  0.90226964     0.67080
H236        H  0.09574239  0.56271089  0.98569344     0.15980
H237        H  0.14810230  0.38594703  0.00675647     0.15690
N238        N  0.14681036  0.43483169  0.09399099     0.74790
O239        O  0.05037280  0.54676340  0.90398740    -0.38660
O240        O  0.08994496  0.49050754  0.85948953    -0.38610
O241        O  0.11655194  0.44140288  0.13072721    -0.39310
O242        O  0.18254987  0.40359583  0.09863903    -0.39380
C243        C  0.13107574  0.92110959  0.99663595    -0.11660
C244        C  0.12114763  0.93893776  0.04595373     0.05350
C245        C  0.10863197  0.99005111  0.05294934    -0.06950
C246        C  0.10841971  0.02209764  0.01069303    -0.07690
C247        C  0.11787898  0.00441191  0.96106580    -0.02240
C248        C  0.12829627  0.95269588  0.95399404     0.04580
N249        N  0.13296243  0.93089227  0.90408276     0.67080
H250        H  0.13874814  0.88155390  0.99109616     0.15980
H251        H  0.10063937  0.06150136  0.01692392     0.15690
N252        N  0.09255322  0.00964235  0.10143624     0.74790
O253        O  0.16342065  0.89506334  0.89657708    -0.38660
O254        O  0.10189577  0.94247894  0.86939727    -0.38610
O255        O  0.11868594  0.00232735  0.14098767    -0.39310
O256        O  0.05606053  0.04031245  0.10346782    -0.39380
C257        C  0.73518224  0.56471113  0.29858089    -0.11660
C258        C  0.68280472  0.56547680  0.28861558     0.05350
C259        C  0.66561701  0.56607151  0.23751446    -0.06950
C260        C  0.70144412  0.56901305  0.19794441    -0.07690
C261        C  0.75387860  0.56959232  0.20798271    -0.02240
C262        C  0.77097107  0.56582322  0.25899079     0.04580
N263        N  0.82416710  0.56206003  0.27123148     0.67080
H264        H  0.74831722  0.56354236  0.33769174     0.15980
H265        H  0.68833962  0.57085533  0.15886618     0.15690
N266        N  0.61235760  0.56283825  0.22517275     0.74790
O267        O  0.84097024  0.58076647  0.31212138    -0.38660
O268        O  0.85324592  0.53504618  0.24453051    -0.38610
O269        O  0.59563215  0.58234769  0.18473199    -0.39310
O270        O  0.58290720  0.53600786  0.25157815    -0.39380
C271        C  0.20969523  0.56348497  0.29635742    -0.11660
C272        C  0.26180852  0.56987399  0.28671141     0.05350
C273        C  0.27855648  0.57502128  0.23558439    -0.06950
C274        C  0.24241740  0.57715060  0.19618958    -0.07690
C275        C  0.19030166  0.57244261  0.20631290    -0.02240
C276        C  0.17409429  0.56420455  0.25681406     0.04580
N277        N  0.12188223  0.55434503  0.26833557     0.67080
H278        H  0.19626607  0.55880970  0.33508444     0.15980
H279        H  0.25502010  0.58195704  0.15720486     0.15690
N280        N  0.33175088  0.57639008  0.22282187     0.74790
O281        O  0.10858806  0.51042510  0.28013512    -0.38660
O282        O  0.09219727  0.59034341  0.27765523    -0.38610
O283        O  0.36288519  0.54832690  0.24569500    -0.39070
O284        O  0.34680846  0.60103834  0.18468241    -0.39380
C285        C  0.66901641  0.87665242  0.24165142    -0.11660
C286        C  0.68784926  0.87596081  0.29166763     0.05350
C287        C  0.74100913  0.87515057  0.29988127    -0.06950
C288        C  0.77375807  0.87465465  0.25775190    -0.07690
C289        C  0.75488601  0.87328718  0.20774756    -0.02240
C290        C  0.70179669  0.87460081  0.19964613     0.04580
N291        N  0.68046447  0.87139845  0.14942150     0.67080
H292        H  0.62830544  0.87703917  0.23527533     0.15980
H293        H  0.81446723  0.87385000  0.26404676     0.15690
N294        N  0.76240671  0.87244490  0.35023912     0.74790
O295        O  0.69493163  0.83753656  0.11905435    -0.38660
O296        O  0.64322146  0.89873192  0.13735719    -0.38610
O297        O  0.74364333  0.84324587  0.38302947    -0.39310
O298        O  0.80402511  0.89406080  0.35990709    -0.39380
C299        C  0.17031538  0.86913704  0.26077432    -0.11660
C300        C  0.18920198  0.87061518  0.21070406     0.05350
C301        C  0.24236844  0.87319882  0.20284832    -0.06950
C302        C  0.27487945  0.87479870  0.24516051    -0.07690
C303        C  0.25606651  0.87177176  0.29512402    -0.02240
C304        C  0.20297397  0.86856557  0.30307003     0.04580
N305        N  0.18165265  0.86225028  0.35314116     0.67080
H306        H  0.12964218  0.86694917  0.26692627     0.15980
H307        H  0.31557932  0.87673938  0.23902761     0.15690
N308        N  0.26421060  0.87170460  0.15263992     0.74790
O309        O  0.13835818  0.88004002  0.36336285    -0.38660
O310        O  0.20256255  0.83335956  0.38487825    -0.38610
O311        O  0.30428728  0.89602645  0.14316131    -0.39310
O312        O  0.24765585  0.84114439  0.11980634    -0.39380
C313        C  0.73930419  0.37211953  0.69894058    -0.11660
C314        C  0.68725676  0.37651941  0.70954177     0.05350
C315        C  0.67122953  0.38327624  0.76029293    -0.06950
C316        C  0.70708033  0.38301908  0.79961590    -0.07690
C317        C  0.75915723  0.37689713  0.78941417    -0.02240
C318        C  0.77563982  0.37312510  0.73810972     0.04580
N319        N  0.82875013  0.37191056  0.72499952     0.67080
H320        H  0.75168382  0.36823430  0.65975057     0.15980
H321        H  0.69390013  0.38665691  0.83855886     0.15690
N322        N  0.61900821  0.39244967  0.77234671     0.74790
O323        O  0.84355078  0.34761749  0.68643117    -0.38660
O324        O  0.86004660  0.39975105  0.74809179    -0.38610
O325        O  0.58912570  0.35601051  0.77880356    -0.39310
O326        O  0.60576191  0.43552716  0.78717525    -0.39380
C327        C  0.57564450  0.45574372  0.52309138    -0.11660
C328        C  0.62213214  0.43625780  0.54026844     0.05350
C329        C  0.66763798  0.45088298  0.51557304    -0.06950
C330        C  0.66531143  0.48624265  0.47598566    -0.07690
C331        C  0.61859090  0.50500941  0.45821307    -0.02240
C332        C  0.57301407  0.48819229  0.48140411     0.04580
N333        N  0.52375105  0.50146714  0.46182324     0.67080
H334        H  0.54060067  0.44434813  0.54143258     0.15980
H335        H  0.70031920  0.49844600  0.45817432     0.15690
N336        N  0.71589730  0.42878601  0.52832726     0.74790
O337        O  0.51502350  0.49901475  0.41459293    -0.38660
O338        O  0.48712230  0.50896271  0.49198390    -0.38610
O339        O  0.71908108  0.38242708  0.53737413    -0.39310
O340        O  0.75630893  0.45392403  0.52367965    -0.39380
C341        C  0.20292298  0.38123917  0.69656837    -0.11660
C342        C  0.25499206  0.37468147  0.70630306     0.05350
C343        C  0.27164900  0.37126788  0.75751039    -0.06950
C344        C  0.23560330  0.36967445  0.79678993    -0.07690
C345        C  0.18346531  0.37462927  0.78695479    -0.02240
C346        C  0.16683299  0.38282438  0.73610056     0.04580
N347        N  0.11497582  0.39571527  0.72345383     0.67080
H348        H  0.18998990  0.38462281  0.65755971     0.15980
H349        H  0.24843556  0.36558774  0.83580605     0.15690
N350        N  0.32479699  0.37146599  0.77049909     0.74790
O351        O  0.10590104  0.42177540  0.68439569    -0.38660
O352        O  0.07789884  0.38061058  0.74969289    -0.38610
O353        O  0.35500901  0.40093142  0.74816503    -0.39310
O354        O  0.34043823  0.34711603  0.80858856    -0.39380
C355        C  0.34263653  0.42363217  0.49085671    -0.11660
C356        C  0.32472875  0.43942735  0.53892759     0.05350
C357        C  0.30738146  0.48964902  0.54396902    -0.06950
C358        C  0.30665598  0.52108414  0.50118518    -0.07690
C359        C  0.32587050  0.50532405  0.45404847    -0.02240
C360        C  0.34569031  0.45624540  0.44904283     0.04580
N361        N  0.37178041  0.43939250  0.40370435     0.67080
H362        H  0.35484981  0.38529464  0.48543313     0.15980
H363        H  0.29326337  0.55929328  0.50533990     0.15690
N364        N  0.29334411  0.51071305  0.59230925     0.74790
O365        O  0.40557222  0.40592999  0.40689604    -0.38660
O366        O  0.36115198  0.45674155  0.36034585    -0.38610
O367        O  0.32298586  0.50697152  0.62992361    -0.39310
O368        O  0.25493636  0.53890128  0.59567340    -0.39380
C369        C  0.73523156  0.07524789  0.70194120    -0.11660
C370        C  0.68375008  0.06629433  0.71200908     0.05350
C371        C  0.66777602  0.05707824  0.76255276    -0.06950
C372        C  0.70369664  0.06012988  0.80212476    -0.07690
C373        C  0.75535349  0.06994109  0.79229259    -0.02240
C374        C  0.77137844  0.07619292  0.74110196     0.04580
N375        N  0.82404900  0.08237409  0.72790474     0.67080
H376        H  0.74740987  0.08149032  0.66300906     0.15980
H377        H  0.69118305  0.05483136  0.84103561     0.15690
N378        N  0.61595180  0.04363329  0.77417200     0.74790
O379        O  0.85739348  0.05420340  0.74722976    -0.38660
O380        O  0.83665491  0.11205000  0.69268258    -0.38610
O381        O  0.58952568  0.01932748  0.74244899    -0.39310
O382        O  0.59835598  0.05073762  0.81834699    -0.39380
C383        C  0.66628241  0.95874739  0.47759972    -0.11660
C384        C  0.61969249  0.94223563  0.45738442     0.05350
C385        C  0.57383385  0.96135268  0.47788842    -0.06950
C386        C  0.57581269  0.99356738  0.51990123    -0.07690
C387        C  0.62226211  0.01065465  0.53986802    -0.02240
C388        C  0.66825024  0.99388160  0.51750688     0.04580
N389        N  0.71683953  0.01337199  0.53312921     0.67080
H390        H  0.70150599  0.94475976  0.46160969     0.15980
H391        H  0.54040243  0.00638440  0.53648166     0.15690
N392        N  0.52517377  0.95033666  0.45539080     0.74790
O393        O  0.75585401  0.98586996  0.53136108    -0.38660
O394        O  0.72219797  0.05958953  0.54209780    -0.38610
O395        O  0.48621635  0.94608455  0.48316414    -0.39310
O396        O  0.51975539  0.95143502  0.40761766    -0.39380
C397        C  0.17183531  0.06105756  0.74899870    -0.11660
C398        C  0.19032883  0.07286403  0.79769852     0.05350
C399        C  0.24196821  0.08680142  0.80357921    -0.06950
C400        C  0.27378920  0.08615968  0.76065039    -0.07690
C401        C  0.25523314  0.07538944  0.71153249    -0.02240
C402        C  0.20300404  0.06364710  0.70571910     0.04580
N403        N  0.18009531  0.05753517  0.65639237     0.67080
H404        H  0.13184722  0.05230754  0.74434573     0.15980
H405        H  0.31372243  0.09464695  0.76581053     0.15690
N406        N  0.26235990  0.10491686  0.85122174     0.74790
O407        O  0.14503011  0.02580378  0.64998581    -0.38660
O408        O  0.18966770  0.08835420  0.62123948    -0.38610
O409        O  0.24737809  0.08766574  0.89330192    -0.39310
O410        O  0.29818608  0.13645365  0.85119270    -0.39380
C411        C  0.31291285  0.02330731  0.49680858    -0.11660
C412        C  0.32280423  0.00553970  0.54610230     0.05350
C413        C  0.33463332  0.95432420  0.55294314    -0.06950
C414        C  0.33447937  0.92212047  0.51067492    -0.07690
C415        C  0.32513340  0.93976367  0.46107522    -0.02240
C416        C  0.31522718  0.99155299  0.45410715     0.04580
N417        N  0.31080015  0.01325884  0.40422501     0.67080
H418        H  0.30566288  0.06292320  0.49131976     0.15980
H419        H  0.34210526  0.88269973  0.51684493     0.15690
N420        N  0.35061425  0.93484872  0.60133510     0.74790
O421        O  0.28070721  0.04936586  0.39678135    -0.38660
O422        O  0.34198130  0.00151489  0.36964601    -0.38610
O423        O  0.32234757  0.93884980  0.63991915    -0.39310
O424        O  0.38890107  0.90642026  0.60359398    -0.39380
loop_ 
_geom_bond_atom_site_label_1 
_geom_bond_atom_site_label_2 
_geom_bond_distance 
_geom_bond_site_symmetry_2 
_ccdc_geom_bond_type 
C1            C2   1.407       .  A
C1            C6   1.408       .  A
C1          C401   1.495       .  S
C2            C3   1.401       .  A
C2            H7   1.083       .  S
C3            C4   1.402       .  A
C3           C23   1.475       .  S
C4            C5   1.404       .  A
C4            H8   1.084       .  S
C5            C6   1.405       .  A
C5          C412   1.483       .  S
C6            H9   1.082       .  S
O10          V18   1.896       .  S
O10          C20   1.265       .  A
O11          V18   1.899       .  S
O11          C21   1.265       .  A
O12          V18   1.895       .  S
O12          C22   1.264       .  A
O13          V18   1.900       .  S
O13          C23   1.264       .  A
O14          V19   1.899       .  S
O14          C23   1.265       .  A
O15          V19   1.899       .  S
O15          C22   1.264       .  A
O16          V19   1.899       .  S
O16          C21   1.264       .  A
O17          V19   1.899       .  S
O17          C20   1.264       .  A
V18          V19   2.088       .  T
C20          C26   1.474       .  S
C21          C37   1.474       .  S
C22          C46   1.472       .  S
C24          C25   1.403       .  A
C24          C29   1.404       .  A
C24         C370   1.478       .  S
C25          C26   1.402       .  A
C25          H30   1.084       .  S
C26          C27   1.400       .  A
C27          C28   1.404       .  A
C27          H31   1.084       .  S
C28          C29   1.405       .  A
C28         C387   1.487       .  S
C29          H32   1.083       .  S
C33          C34   1.411       .  A
C33          C38   1.411       .  A
C33         C356   1.504       .  S
C34          C35   1.409       .  A
C34          H39   1.080       .  S
C35          C36   1.404       .  A
C35         C342   1.492       .  S
C36          C37   1.398       .  A
C36          H40   1.084       .  S
C37          C38   1.401       .  A
C38          H41   1.082       .  S
C42          C43   1.405       .  A
C42          C47   1.402       .  A
C42         C314   1.478       .  S
C43          C44   1.406       .  A
C43          H48   1.084       .  S
C44          C45   1.404       .  A
C44         C328   1.486       .  S
C45          C46   1.400       .  A
C45          H49   1.084       .  S
C46          C47   1.400       .  A
C47          H50   1.083       .  S
C51          C52   1.407       .  A
C51          C56   1.402       .  A
C51         C303   1.484       .  S
C52          C53   1.410       .  A
C52          H57   1.083       .  S
C53          C54   1.408       .  A
C53         C415   1.494       .  S
C54          C55   1.401       .  A
C54          H58   1.084       .  S
C55          C56   1.399       .  A
C55          C70   1.473       .  S
C56          H59   1.084       .  S
O60          V68   1.898       .  S
O60          C70   1.264       .  A
O61          V68   1.897       .  S
O61          C71   1.264       .  A
O62          V68   1.898       .  S
O62          C72   1.264       .  A
O63          V68   1.902       .  S
O63          C73   1.265       .  A
O64          V69   1.897       .  S
O64          C73   1.264       .  A
O65          V69   1.894       .  S
O65          C72   1.263       .  A
O66          V69   1.897       .  S
O66          C71   1.264       .  A
O67          V69   1.899       .  S
O67          C70   1.264       .  A
V68          V69   2.088       .  T
C71          C94   1.473       .  S
C72          C78   1.471       .  S
C73          C87   1.475       .  S
C74          C75   1.404       .  A
C74          C79   1.402       .  A
C74         C286   1.480       .  S
C75          C76   1.406       .  A
C75          H80   1.084       .  S
C76          C77   1.405       .  A
C76         C384   1.486       .  S
C77          C78   1.400       .  A
C77          H81   1.084       .  S
C78          C79   1.400       .  A
C79          H82   1.084       .  S
C83          C84   1.406       .  A
C83          C88   1.405       .  A
C83         C272   1.488       .  S
C84          C85   1.403       .  A
C84          H89   1.084       .  S
C85          C86   1.402       .  A
C85         C359   1.478       .  S
C86          C87   1.403       .  A
C86          H90   1.084       .  S
C87          C88   1.403       .  A
C88          H91   1.084       .  S
C92          C93   1.402       .  A
C92          C97   1.405       .  A
C92         C258   1.483       .  S
C93          C94   1.401       .  A
C93          H98   1.084       .  S
C94          C95   1.401       .  A
C95          C96   1.406       .  A
C95          H99   1.083       .  S
C96          C97   1.408       .  A
C96         C331   1.491       .  S
C97         H100   1.083       .  S
O101        V109   1.897       .  S
O101        C111   1.263       .  A
O102        V109   1.897   1_455  S
O102        C112   1.264       .  A
O103        V109   1.899       .  S
O103        C113   1.265       .  A
O104        V109   1.902   1_455  S
O104        C114   1.265       .  A
O105        V110   1.898   1_455  S
O105        C114   1.264       .  A
O106        V110   1.900       .  S
O106        C113   1.264       .  A
O107        V110   1.903   1_455  S
O107        C112   1.265       .  A
O108        V110   1.901       .  S
O108        C111   1.265       .  A
V109        V110   2.088       .  T
C111        C135   1.474       .  S
C112        C126   1.475       .  S
C113        C146   1.475       .  S
C114        C117   1.475       .  S
C115        C116   1.405       .  A
C115        C120   1.405       .  A
C115        C300   1.486       .  S
C116        C117   1.402       .  A
C116        H121   1.084       .  S
C117        C118   1.403       .  A
C118        C119   1.404       .  A
C118        H122   1.084       .  S
C119        C120   1.404       .  A
C119        C244   1.481       .  S
C120        H123   1.083       .  S
C124        C125   1.402       .  A
C124        C129   1.406       .  A
C124        C275   1.482       .  S
C125        C126   1.399       .  A
C125        H130   1.083       .  S
C126        C127   1.403       .  A
C127        C128   1.410       .  A
C127        H131   1.083       .  S
C128        C129   1.410       .  A
C128        C230   1.501       .  S
C129        H132   1.082       .  S
C133        C134   1.404       .  A
C133        C138   1.403       .  A
C133        C289   1.482       .  S
C134        C135   1.402       .  A
C134        H139   1.084       .  S
C135        C136   1.404       .  A
C136        C137   1.403       .  A
C136        H140   1.084       .  S
C137        C138   1.402       .  A
C137        C219   1.478       .  S
C138        H141   1.084       .  S
C142        C143   1.405       .  A
C142        C147   1.405       .  A
C142        C261   1.485       .  S
C143        C144   1.408       .  A
C143        H148   1.082       .  S
C144        C145   1.408       .  A
C144        C205   1.497       .  S
C145        C146   1.400       .  A
C145        H149   1.083       .  S
C146        C147   1.401       .  A
C147        H150   1.084       .  S
O151        V159   1.900   1_455  S
O151        C161   1.264       .  A
O152        V159   1.900       .  S
O152        C162   1.264       .  A
O153        V159   1.899       .  S
O153        C163   1.265       .  A
O154        V159   1.903   1_455  S
O154        C164   1.265       .  A
O155        V160   1.896   1_455  S
O155        C164   1.264       .  A
O156        V160   1.898       .  S
O156        C163   1.264       .  A
O157        V160   1.899       .  S
O157        C162   1.265       .  A
O158        V160   1.900   1_455  S
O158        C161   1.264       .  A
V159        V160   2.088       .  T
C161        C176   1.474       .  S
C162        C196   1.475       .  S
C163        C187   1.473       .  S
C164        C169   1.475       .  S
C165        C166   1.405       .  A
C165        C170   1.405       .  A
C165        C233   1.482       .  S
C166        C167   1.405       .  A
C166        H171   1.084       .  S
C167        C168   1.402       .  A
C167        C345   1.482       .  S
C168        C169   1.402       .  A
C168        H172   1.084       .  S
C169        C170   1.404       .  A
C170        H173   1.084       .  S
C174        C175   1.409       .  A
C174        C179   1.408       .  A
C174        C247   1.494       .  S
C175        C176   1.402       .  A
C175        H180   1.083       .  S
C176        C177   1.400       .  A
C177        C178   1.402       .  A
C177        H181   1.084       .  S
C178        C179   1.404       .  A
C178        C398   1.479       .  S
C179        H182   1.083       .  S
C183        C184   1.408       .  A
C183        C188   1.406       .  A
C183        C373   1.492       .  S
C184        C185   1.408       .  A
C184        H189   1.082       .  S
C185        C186   1.407       .  A
C185        C216   1.496       .  S
C186        C187   1.399       .  A
C186        H190   1.083       .  S
C187        C188   1.400       .  A
C188        H191   1.083       .  S
C192        C193   1.404       .  A
C192        C197   1.406       .  A
C192        C317   1.486       .  S
C193        C194   1.401       .  A
C193        H198   1.084       .  S
C194        C195   1.402       .  A
C194        C202   1.476       .  S
C195        C196   1.403       .  A
C195        H199   1.084       .  S
C196        C197   1.404       .  A
C197        H200   1.084       .  S
C201        C202   1.401   1_554  A
C201        C206   1.402       .  A
C201        H208   1.084       .  S
C202        C203   1.416       .  A
C203        C204   1.403       .  A
C203        N210   1.444       .  S
C204        C205   1.408   1_556  A
C204        H209   1.082       .  S
C205        C206   1.420       .  A
C206        N207   1.436       .  S
N207        O211   1.263       .  A
N207        O212   1.263       .  A
N210        O213   1.261       .  A
N210        O214   1.263       .  A
C215        C216   1.407   1_554  A
C215        C220   1.403   1_545  A
C215        H222   1.083       .  S
C216        C217   1.418   1_545  A
C217        C218   1.404       .  A
C217        N224   1.437       .  S
C218        C219   1.403   1_556  A
C218        H223   1.084       .  S
C219        C220   1.418       .  A
C220        N221   1.445   1_565  S
N221        O225   1.263       .  A
N221        O226   1.261   1_545  A
N224        O227   1.263       .  A
N224        O228   1.263       .  A
C229        C230   1.409   1_556  A
C229        C234   1.406       .  A
C229        H236   1.082       .  S
C230        C231   1.419       .  A
C231        C232   1.404       .  A
C231        N238   1.436       .  S
C232        C233   1.403   1_554  A
C232        H237   1.084       .  S
C233        C234   1.419       .  A
C234        N235   1.447       .  S
N235        O239   1.263       .  A
N235        O240   1.261       .  A
N238        O241   1.263       .  A
N238        O242   1.263       .  A
C243        C244   1.403   1_556  A
C243        C248   1.405       .  A
C243        H250   1.084       .  S
C244        C245   1.415       .  A
C245        C246   1.402   1_565  A
C245        N252   1.439   1_565  S
C246        C247   1.407   1_554  A
C246        H251   1.083       .  S
C247        C248   1.419   1_545  A
C248        N249   1.438       .  S
N249        O253   1.263       .  A
N249        O254   1.263       .  A
N252        O255   1.261       .  A
N252        O256   1.263       .  A
C257        C258   1.403       .  A
C257        C262   1.403       .  A
C257        H264   1.084       .  S
C258        C259   1.416       .  A
C259        C260   1.405       .  A
C259        N266   1.441       .  S
C260        C261   1.404       .  A
C260        H265   1.084       .  S
C261        C262   1.416       .  A
C262        N263   1.439       .  S
N263        O267   1.263       .  A
N263        O268   1.263       .  A
N266        O269   1.263       .  A
N266        O270   1.263       .  A
C271        C272   1.404       .  A
C271        C276   1.398       .  A
C271        H278   1.084       .  S
C272        C273   1.420       .  A
C273        C274   1.406       .  A
C273        N280   1.439       .  S
C274        C275   1.402       .  A
C274        H279   1.084       .  S
C275        C276   1.410       .  A
C276        N277   1.431       .  S
N277        O281   1.262       .  A
N277        O282   1.262       .  A
N280        O283   1.263       .  A
N280        O284   1.263       .  A
C285        C286   1.404       .  A
C285        C290   1.401       .  A
C285        H292   1.084       .  S
C286        C287   1.415       .  A
C287        C288   1.402       .  A
C287        N294   1.439       .  S
C288        C289   1.404       .  A
C288        H293   1.084       .  S
C289        C290   1.413       .  A
C290        N291   1.435       .  S
N291        O295   1.262       .  A
N291        O296   1.262       .  A
N294        O297   1.263       .  A
N294        O298   1.263       .  A
C299        C300   1.406       .  A
C299        C304   1.404       .  A
C299        H306   1.084       .  S
C300        C301   1.415       .  A
C301        C302   1.402       .  A
C301        N308   1.438       .  S
C302        C303   1.404       .  A
C302        H307   1.084       .  S
C303        C304   1.415       .  A
C304        N305   1.439       .  S
N305        O309   1.263       .  A
N305        O310   1.263       .  A
N308        O311   1.263       .  A
N308        O312   1.263       .  A
C313        C314   1.402       .  A
C313        C318   1.404       .  A
C313        H320   1.084       .  S
C314        C315   1.409       .  A
C315        C316   1.398       .  A
C315        N322   1.431       .  S
C316        C317   1.405       .  A
C316        H321   1.084       .  S
C317        C318   1.418       .  A
C318        N319   1.439       .  S
N319        O323   1.263       .  A
N319        O324   1.263       .  A
N322        O325   1.262       .  A
N322        O326   1.262       .  A
C327        C328   1.404       .  A
C327        C332   1.399       .  A
C327        H334   1.084       .  S
C328        C329   1.416       .  A
C329        C330   1.406       .  A
C329        N336   1.440       .  S
C330        C331   1.407       .  A
C330        H335   1.083       .  S
C331        C332   1.418       .  A
C332        N333   1.439       .  S
N333        O337   1.263       .  A
N333        O338   1.263       .  A
N336        O339   1.263       .  A
N336        O340   1.263       .  A
C341        C342   1.404       .  A
C341        C346   1.407       .  A
C341        H348   1.083       .  S
C342        C343   1.417       .  A
C343        C344   1.402       .  A
C343        N350   1.439       .  S
C344        C345   1.402       .  A
C344        H349   1.084       .  S
C345        C346   1.422       .  A
C346        N347   1.446       .  S
N347        O351   1.263       .  A
N347        O352   1.261       .  A
N350        O353   1.263       .  A
N350        O354   1.263       .  A
C355        C356   1.411       .  A
C355        C360   1.404       .  A
C355        H362   1.081       .  S
C356        C357   1.422       .  A
C357        C358   1.403       .  A
C357        N364   1.435       .  S
C358        C359   1.401       .  A
C358        H363   1.084       .  S
C359        C360   1.415       .  A
C360        N361   1.445       .  S
N361        O365   1.263       .  A
N361        O366   1.261       .  A
N364        O367   1.262       .  A
N364        O368   1.263       .  A
C369        C370   1.400       .  A
C369        C374   1.401       .  A
C369        H376   1.084       .  S
C370        C371   1.414       .  A
C371        C372   1.407       .  A
C371        N378   1.442       .  S
C372        C373   1.408       .  A
C372        H377   1.083       .  S
C373        C374   1.419       .  A
C374        N375   1.438       .  S
N375        O379   1.263       .  A
N375        O380   1.263       .  A
N378        O381   1.263       .  A
N378        O382   1.263       .  A
C383        C384   1.406       .  A
C383        C388   1.405       .  A
C383        H390   1.083       .  S
C384        C385   1.416       .  A
C385        C386   1.398       .  A
C385        N392   1.440       .  S
C386        C387   1.405   1_565  A
C386        H391   1.083   1_565  S
C387        C388   1.417   1_545  A
C388        N389   1.439   1_565  S
N389        O393   1.263   1_545  A
N389        O394   1.263       .  A
N392        O395   1.263       .  A
N392        O396   1.263       .  A
C397        C398   1.403       .  A
C397        C402   1.403       .  A
C397        H404   1.084       .  S
C398        C399   1.417       .  A
C399        C400   1.404       .  A
C399        N406   1.443       .  S
C400        C401   1.408       .  A
C400        H405   1.083       .  S
C401        C402   1.417       .  A
C402        N403   1.437       .  S
N403        O407   1.263       .  A
N403        O408   1.263       .  A
N406        O409   1.261       .  A
N406        O410   1.263       .  A
C411        C412   1.404       .  A
C411        C416   1.405   1_545  A
C411        H418   1.084       .  S
C412        C413   1.413   1_545  A
C413        C414   1.402       .  A
C413        N420   1.437       .  S
C414        C415   1.407       .  A
C414        H419   1.083       .  S
C415        C416   1.418       .  A
C416        N417   1.438   1_565  S
N417        O421   1.263       .  A
N417        O422   1.263       .  A
N420        O423   1.261       .  A
N420        O424   1.263       .  A
