geometry optimzed in LAMMPS
_audit_creation_date              2020-11-30 
_audit_creation_method            'lammps2cif' 
_symmetry_space_group_name_H-M    'P1' 
_symmetry_Int_Tables_number       1 
_symmetry_cell_setting            triclinic 
loop_ 
_symmetry_equiv_pos_as_xyz 
  x,y,z 
_cell_length_a                    43.03185657 
_cell_length_b                    43.98670782845495 
_cell_length_c                    37.88064467372797 
_cell_angle_alpha                 89.87477888871506 
_cell_angle_beta                  90.50929592766225 
_cell_angle_gamma                 89.6169102675523 
loop_ 
_atom_site_label 
_atom_site_type_symbol 
_atom_site_fract_x 
_atom_site_fract_y 
_atom_site_fract_z 
_atom_site_charge 
C1          C  0.88822162  0.23956165  0.46236988     0.05600
C2          C  0.92066929  0.23859940  0.46052812    -0.10500
C3          C  0.93892161  0.23988346  0.49136397     0.03100
C4          C  0.91712360  0.23830310  0.03479516    -0.09100
C5          C  0.88483270  0.23865060  0.03039595     0.05600
C6          C  0.87172846  0.23913128  0.99647772    -0.08500
H7          H  0.93174311  0.23727091  0.43496291     0.11200
H8          H  0.92705494  0.23799544  0.06122104     0.08700
H9          H  0.84666394  0.23941461  0.99314176     0.08600
C10         C  0.07453966  0.24968576  0.47349800     0.05600
C11         C  0.09250372  0.25026406  0.50447805    -0.10500
C12         C  0.07161976  0.24725957  0.03267217     0.03100
C13         C  0.03915393  0.24811317  0.02885727    -0.09100
C14         C  0.02723807  0.24995881  0.50852522     0.05600
C15         C  0.04200885  0.24954646  0.47545058    -0.08500
H16         H  0.11766762  0.25030874  0.50300580     0.11200
H17         H  0.02494812  0.24806768  0.05229377     0.08700
H18         H  0.02851622  0.24980344  0.45120528     0.08600
In19       In  0.28104130  0.49658454  0.24748847     1.36900
C20         C  0.25440537  0.44213086  0.24757903     0.80100
O21         O  0.27872106  0.49546740  0.18824554    -0.58400
O22         O  0.32321440  0.49587284  0.21322341    -0.49300
C23         C  0.26198374  0.05198954  0.26120344     0.72700
O24         O  0.24598940  0.02810240  0.25985692    -0.44200
C25         C  0.30849576  0.49656731  0.31032945     0.77600
O26         O  0.23889068  0.46636694  0.24376113    -0.56000
O27         O  0.32362571  0.49532257  0.28204973    -0.46100
O28         O  0.28322448  0.44569963  0.25131588    -0.52400
C29         C  0.30781072  0.49536287  0.18480768     0.87600
O30         O  0.29085102  0.04768934  0.26374910    -0.54300
O31         O  0.27941152  0.49785707  0.30663277    -0.57600
In32       In  0.17088545  0.24603728  0.25314358     1.36900
C33         C  0.19578643  0.30129868  0.25105289     0.80100
O34         O  0.17179404  0.24437675  0.19381462    -0.58400
O35         O  0.12794402  0.24359743  0.21916721    -0.49300
C36         C  0.19900012  0.19186102  0.25508405     0.72700
O37         O  0.21377197  0.21621711  0.25078596    -0.44200
C38         C  0.14384177  0.24814701  0.31585044     0.77400
O39         O  0.21207530  0.27758432  0.25497177    -0.56000
O40         O  0.12854820  0.24684175  0.28741120    -0.46100
O41         O  0.16703113  0.29683884  0.24822016    -0.52400
C42         C  0.14266267  0.24351568  0.19059672     0.87600
O43         O  0.17010688  0.19512498  0.25839740    -0.54300
O44         O  0.17292072  0.24843230  0.31241861    -0.57600
In45       In  0.67292417  0.99495705  0.23513056     1.36900
C46         C  0.69607110  0.44005782  0.25083650     0.80100
O47         O  0.67371983  0.99479368  0.29427216    -0.58400
O48         O  0.62747151  0.49493196  0.28527804    -0.49300
C49         C  0.69828585  0.04972333  0.23745443     0.72700
O50         O  0.71445596  0.02571998  0.23862158    -0.44200
C51         C  0.64809396  0.99545433  0.17096327     0.77400
O52         O  0.71191248  0.46404631  0.25116259    -0.56000
O53         O  0.63182052  0.99489943  0.19842409    -0.46100
O54         O  0.66710070  0.44411210  0.25084997    -0.52400
C55         C  0.64456629  0.99513992  0.29681321     0.87600
O56         O  0.66942510  0.04578088  0.23490283    -0.54300
O57         O  0.67703740  0.99571893  0.17613044    -0.57600
In58       In  0.78307817  0.24440627  0.24610161     1.36900
C59         C  0.75707692  0.18996425  0.24493891     0.80100
O60         O  0.77989771  0.24206592  0.18705453    -0.58400
O61         O  0.82465000  0.24608071  0.21088328    -0.49300
C62         C  0.75704870  0.29945751  0.24722616     0.72700
O63         O  0.74122688  0.27547568  0.24843028    -0.44200
C64         C  0.81093332  0.24211736  0.30868897     0.77400
O65         O  0.74114217  0.21413578  0.24453208    -0.56000
O66         O  0.82588096  0.24257021  0.28026475    -0.46100
O67         O  0.78604708  0.19358403  0.24622671    -0.52400
C68         C  0.80883045  0.24367045  0.18290344     0.87600
O69         O  0.78595122  0.29538062  0.24536315    -0.54300
O70         O  0.78181013  0.24297410  0.30528965    -0.57600
C71         C  0.38584759  0.49564157  0.46394667     0.05600
C72         C  0.37206785  0.49455272  0.49720805    -0.10500
C73         C  0.38597615  0.49691516  0.03328853     0.03100
C74         C  0.41824677  0.49976111  0.03656652    -0.09100
C75         C  0.43715355  0.49780135  0.49145763     0.05600
C76         C  0.41819074  0.49730583  0.46112573    -0.08500
H77         H  0.34698043  0.49340945  0.49936226     0.11200
H78         H  0.42880251  0.50087751  0.06264146     0.08700
H79         H  0.42862990  0.49822465  0.43518780     0.08600
C80         C  0.57551971  0.99787619  0.01448860     0.05600
C81         C  0.59070326  0.99738028  0.48433408    -0.10500
C82         C  0.57340145  0.99591379  0.45297209     0.03100
C83         C  0.54071807  0.49589602  0.47391043    -0.09100
C84         C  0.52645313  0.49541095  0.50728782     0.05600
C85         C  0.54031840  0.49752734  0.02615432    -0.08500
H86         H  0.61585583  0.99860615  0.48345664     0.11200
H87         H  0.52705825  0.49368542  0.44993557     0.08700
H88         H  0.52653474  0.49617785  0.04985057     0.08600
C89         C  0.47131239  0.50037926  0.48683121    -0.13900
C90         C  0.49233398  0.49236526  0.51174718    -0.29100
H91         H  0.48385840  0.00878175  0.03684434     0.15100
H92         H  0.48449580  0.48364921  0.53692193     0.15600
C93         C  0.62929817  0.99538192  0.33024633    -0.16000
C94         C  0.61661293  0.99563466  0.35843666     0.08000
C95         C  0.60175420  0.99588085  0.39142724     0.09900
C96         C  0.58892937  0.99597147  0.41954264    -0.16900
C97         C  0.63456115  0.99581734  0.13629282    -0.16000
C98         C  0.62249084  0.99622382  0.10750991     0.08000
C99         C  0.60734943  0.99679611  0.07438928     0.09900
C100        C  0.59340958  0.99731964  0.04670102    -0.16900
C101        C  0.71156278  0.07952375  0.23907405    -0.16000
C102        C  0.72167881  0.10497712  0.24057586     0.08000
C103        C  0.73314812  0.13492690  0.24235528     0.09900
C104        C  0.74343529  0.16031693  0.24372693    -0.16900
C105        C  0.70985599  0.41019343  0.25032298    -0.16000
C106        C  0.72054927  0.38475811  0.24966489     0.08000
C107        C  0.73266676  0.35479217  0.24876814     0.09900
C108        C  0.74332142  0.32934323  0.24801724    -0.16900
C109        C  0.32245799  0.49485546  0.15098424    -0.16000
C110        C  0.33565829  0.49475952  0.12308597     0.08000
C111        C  0.35217903  0.49508453  0.09112007     0.09900
C112        C  0.36715995  0.49573909  0.06442878    -0.16900
C113        C  0.32334036  0.49641212  0.34432763    -0.16000
C114        C  0.33624290  0.49612929  0.37265852     0.08000
C115        C  0.35222446  0.49573647  0.40529099     0.09900
C116        C  0.36692441  0.49552686  0.43248658    -0.16900
C117        C  0.21381079  0.16243190  0.25612385    -0.16000
C118        C  0.22516042  0.13724765  0.25716245     0.08000
C119        C  0.23774459  0.10743469  0.25854491     0.09900
C120        C  0.24847183  0.08199883  0.25979617    -0.16900
C121        C  0.20882652  0.33131544  0.24994512    -0.16000
C122        C  0.21881315  0.35689767  0.24905045     0.08000
C123        C  0.23021337  0.38700002  0.24819106     0.09900
C124        C  0.24052167  0.41246702  0.24772766    -0.16900
C125        C  0.12728441  0.24297591  0.15683272    -0.16000
C126        C  0.11410278  0.24332875  0.12861802     0.08000
C127        C  0.09863218  0.24441015  0.09560885     0.09900
C128        C  0.08582352  0.24564105  0.06719778    -0.16900
C129        C  0.12917096  0.24904153  0.34971814    -0.16000
C130        C  0.11672761  0.24943062  0.37810647     0.08000
C131        C  0.10206647  0.24956293  0.41130828     0.09900
C132        C  0.08950975  0.24957986  0.43963972    -0.16900
C133        C  0.82280575  0.24253227  0.14876504    -0.16000
C134        C  0.83512728  0.24126578  0.12040377     0.08000
C135        C  0.85069167  0.23986001  0.08788949     0.09900
C136        C  0.86537419  0.23902644  0.06100999    -0.16900
C137        C  0.82603887  0.24074028  0.34250564    -0.16000
C138        C  0.83922872  0.23979807  0.37064795     0.08000
C139        C  0.85541481  0.23914561  0.40313872     0.09900
C140        C  0.86996796  0.23906659  0.43042839    -0.16900
C141        C  0.97327566  0.23910075  0.48779653    -0.13900
C142        C  0.99291758  0.25038065  0.51222482    -0.29100
H143        H  0.98248051  0.22945555  0.46368916     0.15100
H144        H  0.98290336  0.26039062  0.96447801     0.15600
C145        C  0.89096546  0.23922974  0.96686313     0.05600
C146        C  0.92338115  0.23909222  0.97126229    -0.10500
C147        C  0.93669935  0.23890390  0.00543533     0.03100
C148        C  0.92404436  0.24136444  0.52436412    -0.09100
C149        C  0.89151295  0.24225909  0.52615376     0.05600
C150        C  0.87364994  0.24146632  0.49513850    -0.08500
H151        H  0.93792486  0.23857901  0.94810001     0.11200
H152        H  0.93740390  0.24131819  0.54869333     0.08700
H153        H  0.84848619  0.24225906  0.49650322     0.08600
C154        C  0.07695610  0.24993648  0.96917444     0.05600
C155        C  0.09046643  0.24805813  0.00279195    -0.10500
C156        C  0.07796931  0.25097011  0.53735284     0.03100
C157        C  0.04553421  0.25100796  0.53931184    -0.09100
C158        C  0.02540641  0.24963287  0.99492858     0.05600
C159        C  0.04463813  0.25092602  0.96529621    -0.08500
H160        H  0.11556476  0.24728776  0.00569416     0.11200
H161        H  0.03449795  0.25157429  0.56493763     0.08700
H162        H  0.03441832  0.25227131  0.93904806     0.08600
In163      In  0.29399931  0.49808687  0.74772381     1.36900
C164        C  0.26708816  0.44403425  0.74932407     0.80100
O165        O  0.29238622  0.49691175  0.68838214    -0.58400
O166        O  0.33655732  0.49723472  0.71391678    -0.49300
C167        C  0.26401670  0.05384920  0.76183930     0.72700
O168        O  0.24763725  0.03018002  0.76164197    -0.44200
C169        C  0.32126169  0.49759691  0.81072341     0.77600
O170        O  0.25154864  0.46840886  0.74816530    -0.56000
O171        O  0.33644620  0.49742872  0.78246586    -0.46100
O172        O  0.29610956  0.44722699  0.74938835    -0.52400
C173        C  0.32149586  0.49670911  0.68529916     0.87600
O174        O  0.29291207  0.04935636  0.76284673    -0.54300
O175        O  0.29215668  0.49818478  0.80695834    -0.57600
In176      In  0.18076594  0.25016167  0.75497291     1.36900
C177        C  0.20655101  0.30463447  0.75473692     0.80100
O178        O  0.18232887  0.25134380  0.69585367    -0.58400
O179        O  0.13817530  0.24914062  0.72054704    -0.49300
C180        C  0.20669805  0.19533899  0.75574054     0.72700
O181        O  0.22267503  0.21923519  0.75480597    -0.44200
C182        C  0.15448900  0.25092529  0.81770895     0.77400
O183        O  0.22257876  0.28053751  0.75460627    -0.56000
O184        O  0.13886946  0.25129981  0.78944413    -0.46100
O185        O  0.17759416  0.30092654  0.75514540    -0.52400
C186        C  0.15324248  0.25040596  0.69224897     0.87600
O187        O  0.17774964  0.19942050  0.75605358    -0.54300
O188        O  0.18354293  0.25023935  0.81408366    -0.57600
In189      In  0.67725455  0.99748224  0.73526407     1.36900
C190        C  0.70807031  0.44217045  0.75271278     0.80100
O191        O  0.67725853  0.99878109  0.79460896    -0.58400
O192        O  0.63993309  0.49644049  0.78518491    -0.49300
C193        C  0.70389779  0.05202985  0.73651421     0.72700
O194        O  0.71944727  0.02770599  0.73895684    -0.44200
C195        C  0.65092644  0.99836286  0.67175290     0.77400
O196        O  0.72401767  0.46599639  0.75549160    -0.56000
O197        O  0.63537577  0.99912960  0.69971680    -0.46100
O198        O  0.67926513  0.44652671  0.74934840    -0.52400
C199        C  0.64806368  0.99848935  0.79666316     0.87600
O200        O  0.67502818  0.04852652  0.73335418    -0.54300
O201        O  0.67995791  0.99701114  0.67603241    -0.57600
In202      In  0.79314625  0.24564925  0.74532082     1.36900
C203        C  0.76576737  0.19153234  0.74254680     0.80100
O204        O  0.79092080  0.24853011  0.68595068    -0.58400
O205        O  0.83521830  0.24424402  0.71073000    -0.49300
C206        C  0.76774989  0.30098131  0.74910673     0.72700
O207        O  0.75161108  0.27717413  0.74864082    -0.44200
C208        C  0.82157739  0.24288840  0.80780293     0.77400
O209        O  0.75046246  0.21607403  0.74204876    -0.56000
O210        O  0.83621624  0.24491411  0.77927075    -0.46100
O211        O  0.79476929  0.19460720  0.74454270    -0.52400
C212        C  0.81992298  0.24647987  0.68236460     0.87600
O213        O  0.79662567  0.29659657  0.74758419    -0.54300
O214        O  0.79242812  0.24224436  0.80457869    -0.57600
C215        C  0.39047299  0.49700107  0.96959840     0.05600
C216        C  0.37210277  0.49542963  0.99982464    -0.10500
C217        C  0.39063735  0.49533360  0.52769789     0.03100
C218        C  0.42304489  0.49704695  0.52491788    -0.09100
C219        C  0.43701470  0.50080106  0.00647775     0.05600
C220        C  0.42280180  0.49975762  0.97282758    -0.08500
H221        H  0.34707595  0.49334370  0.99731018     0.11200
H222        H  0.43683733  0.49853415  0.54886626     0.08700
H223        H  0.43649598  0.50168948  0.94911571     0.08600
C224        C  0.57555727  0.99704839  0.51683550     0.05600
C225        C  0.59043183  0.99996090  0.98194718    -0.10500
C226        C  0.57295303  0.99983556  0.95064509     0.03100
C227        C  0.54496128  0.49689806  0.96242882    -0.09100
C228        C  0.52612436  0.49664187  0.99247788     0.05600
C229        C  0.54521377  0.49683431  0.53773340    -0.08500
H230        H  0.61557309  0.00129081  0.98097305     0.11200
H231        H  0.53440997  0.49586234  0.93634562     0.08700
H232        H  0.53464847  0.49611134  0.56361223     0.08600
C233        C  0.47114692  0.50366467  0.01144218    -0.13900
C234        C  0.49195823  0.49428810  0.98741019    -0.29100
H235        H  0.48374725  0.01052151  0.53698454     0.15100
H236        H  0.48388017  0.48470200  0.96264095     0.15600
C237        C  0.63212063  0.99935596  0.82974546    -0.16000
C238        C  0.61835263  0.00013877  0.85729848     0.08000
C239        C  0.60212110  0.00078575  0.88950232     0.09900
C240        C  0.58851568  0.00077541  0.91718097    -0.16900
C241        C  0.63648831  0.99891777  0.63753770    -0.16000
C242        C  0.62355753  0.99908139  0.60922445     0.08000
C243        C  0.60758951  0.99876884  0.57659039     0.09900
C244        C  0.59330493  0.99811842  0.54913101    -0.16900
C245        C  0.71781481  0.08168884  0.73742081    -0.16000
C246        C  0.72845611  0.10702441  0.73836074     0.08000
C247        C  0.74058818  0.13685202  0.73967826     0.09900
C248        C  0.75144128  0.16208845  0.74094537    -0.16900
C249        C  0.72157929  0.41215795  0.75316167    -0.16000
C250        C  0.73206917  0.38662037  0.75302845     0.08000
C251        C  0.74397017  0.35654710  0.75225040     0.09900
C252        C  0.75438356  0.33100367  0.75106073    -0.16900
C253        C  0.33646828  0.49597039  0.65163357    -0.16000
C254        C  0.34916945  0.49546915  0.62341650     0.08000
C255        C  0.36395269  0.49509940  0.59031787     0.09900
C256        C  0.37631540  0.49503874  0.56189305    -0.16900
C257        C  0.33609830  0.49707201  0.84474959    -0.16000
C258        C  0.34873609  0.49660676  0.87324845     0.08000
C259        C  0.36354982  0.49627873  0.90661011     0.09900
C260        C  0.37601071  0.49636952  0.93521777    -0.16900
C261        C  0.22024862  0.16549458  0.75665111    -0.16000
C262        C  0.23024197  0.13986836  0.75784228     0.08000
C263        C  0.24120950  0.10961175  0.75945656     0.09900
C264        C  0.25095284  0.08389666  0.76073043    -0.16900
C265        C  0.22010000  0.33429300  0.75420705    -0.16000
C266        C  0.23048724  0.35963271  0.75333240     0.08000
C267        C  0.24231655  0.38941962  0.75194261     0.09900
C268        C  0.25297296  0.41464045  0.75065656    -0.16900
C269        C  0.13832513  0.25085679  0.65832820    -0.16000
C270        C  0.12558596  0.25126771  0.62992312     0.08000
C271        C  0.11016195  0.25154063  0.59697614     0.09900
C272        C  0.09613981  0.25146323  0.56934334    -0.16900
C273        C  0.14011880  0.25114366  0.85158799    -0.16000
C274        C  0.12721573  0.25111309  0.87960614     0.08000
C275        C  0.11102116  0.25088264  0.91169114     0.09900
C276        C  0.09611338  0.25054710  0.93838293    -0.16900
C277        C  0.83458088  0.24645108  0.64847048    -0.16000
C278        C  0.84754107  0.24596161  0.62038600     0.08000
C279        C  0.86311713  0.24496352  0.58774997     0.09900
C280        C  0.87631971  0.24383134  0.55983381    -0.16900
C281        C  0.83702782  0.24151818  0.84154516    -0.16000
C282        C  0.85002909  0.24062535  0.86987841     0.08000
C283        C  0.86501156  0.23988954  0.90322442     0.09900
C284        C  0.87727861  0.23949242  0.93198999    -0.16900
C285        C  0.97078830  0.23852840  0.01175629    -0.13900
C286        C  0.99125748  0.25039604  0.98903690    -0.29100
H287        H  0.97903011  0.22859248  0.03638581     0.15100
H288        H  0.98376521  0.26002893  0.53634679     0.15600
C289        C  0.88625753  0.74215221  0.46240529     0.05600
C290        C  0.91869729  0.74170772  0.46034234    -0.10500
C291        C  0.93708455  0.74253917  0.49108452     0.03100
C292        C  0.91921333  0.73622252  0.03494039    -0.09100
C293        C  0.88689790  0.73764892  0.03103919     0.05600
C294        C  0.87342173  0.73924819  0.99737806    -0.08500
H295        H  0.92966227  0.74103341  0.43468087     0.11200
H296        H  0.92941945  0.73519551  0.06121133     0.08700
H297        H  0.84833992  0.74045614  0.99445372     0.08600
C298        C  0.07281539  0.75056916  0.47333879     0.05600
C299        C  0.09071746  0.75042509  0.50435157    -0.10500
C300        C  0.07303119  0.74910718  0.03249923     0.03100
C301        C  0.04062771  0.74784680  0.02830447    -0.09100
C302        C  0.02545934  0.75202179  0.50823288     0.05600
C303        C  0.04028653  0.75144738  0.47518562    -0.08500
H304        H  0.11587919  0.74965914  0.50293574     0.11200
H305        H  0.02621393  0.74780010  0.05157071     0.08700
H306        H  0.02686525  0.75219657  0.45090134     0.08600
In307      In  0.28765457  0.99667964  0.26309899     1.36900
C308        C  0.26096596  0.94214210  0.26173677     0.80100
O309        O  0.28744615  0.99611797  0.20376556    -0.58400
O310        O  0.33101858  0.99721337  0.23058677    -0.49300
C311        C  0.25619814  0.55217897  0.24803816     0.72700
O312        O  0.24000120  0.52859169  0.25157231    -0.44200
C313        C  0.31370289  0.99594405  0.32685323     0.77600
O314        O  0.24534834  0.96649229  0.26212344    -0.56000
O315        O  0.32934175  0.99464237  0.29897004    -0.46100
O316        O  0.28995979  0.94559907  0.26234616    -0.52400
C317        C  0.31661557  0.99655604  0.20152927     0.87600
O318        O  0.28479201  0.54739790  0.24391260    -0.54300
O319        O  0.28469438  0.99753817  0.32238290    -0.57600
In320      In  0.17093485  0.74868392  0.25411592     1.36900
C321        C  0.19794589  0.80304473  0.25577023     0.80100
O322        O  0.17155860  0.75043148  0.19474229    -0.58400
O323        O  0.12781196  0.74855445  0.22016103    -0.49300
C324        C  0.19738119  0.69369875  0.25266077     0.72700
O325        O  0.21299267  0.71778125  0.25091969    -0.44200
C326        C  0.14388496  0.74854845  0.31683631     0.77400
O327        O  0.21335602  0.77858439  0.25674102    -0.56000
O328        O  0.12862638  0.74925014  0.28834248    -0.46100
O329        O  0.16894721  0.79980075  0.25390515    -0.52400
C330        C  0.14241972  0.74975169  0.19155992     0.87600
O331        O  0.16851122  0.69763605  0.25517427    -0.54300
O332        O  0.17296956  0.74786387  0.31348247    -0.57600
In333      In  0.66994227  0.49507747  0.25123057     1.36900
C334        C  0.69876102  0.93995364  0.23627795     0.80100
O335        O  0.67170654  0.49592180  0.31060657    -0.58400
O336        O  0.62980510  0.99530418  0.26794256    -0.49300
C337        C  0.69697398  0.54916044  0.25104792     0.72700
O338        O  0.71246153  0.52474947  0.25192162    -0.44200
C339        C  0.64233823  0.49650486  0.18827103     0.77400
O340        O  0.71478049  0.96384990  0.23569228    -0.56000
O341        O  0.62731656  0.49680035  0.21663603    -0.46100
O342        O  0.66980849  0.94413094  0.23612466    -0.52400
C343        C  0.64261487  0.49563234  0.31384059     0.87600
O344        O  0.66795318  0.54598231  0.25044396    -0.54300
O345        O  0.67143697  0.49531122  0.19189691    -0.57600
In346      In  0.78279800  0.74340746  0.24512189     1.36900
C347        C  0.75679567  0.68898222  0.24683853     0.80100
O348        O  0.78005233  0.74239673  0.18599781    -0.58400
O349        O  0.82471786  0.74159870  0.21064720    -0.49300
C350        C  0.75743699  0.79862974  0.24293155     0.72700
O351        O  0.74126158  0.77484263  0.24215798    -0.44200
C352        C  0.81016250  0.74321055  0.30796700     0.77400
O353        O  0.74090635  0.71314303  0.24820158    -0.56000
O354        O  0.82532378  0.74395020  0.27969802    -0.46100
O355        O  0.78566723  0.69262075  0.24445353    -0.52400
C356        C  0.80910259  0.74148625  0.18237335     0.87600
O357        O  0.78631564  0.79424924  0.24503613    -0.54300
O358        O  0.78106002  0.74286012  0.30427143    -0.57600
C359        C  0.38864199  0.99684750  0.48226608     0.05600
C360        C  0.37336613  0.99591050  0.51467948    -0.10500
C361        C  0.39066294  0.99583478  0.04676619     0.03100
C362        C  0.42315426  0.99748911  0.04543368    -0.09100
C363        C  0.43862014  0.99920654  0.51292387     0.05600
C364        C  0.42110361  0.99864968  0.48132606    -0.08500
H365        H  0.34820917  0.99467778  0.51537846     0.11200
H366        H  0.43651302  0.99798517  0.06983602     0.08700
H367        H  0.43233267  0.00024259  0.45595104     0.08600
C368        C  0.57274185  0.49920647  0.02943778     0.05600
C369        C  0.59144872  0.50007631  0.50190317    -0.10500
C370        C  0.57309918  0.49827599  0.47130815     0.03100
C371        C  0.54095133  0.99426794  0.45409095    -0.09100
C372        C  0.52544516  0.99427862  0.48655273     0.05600
C373        C  0.54310414  0.99586712  0.01585112    -0.08500
H374        H  0.61651378  0.50173834  0.49989769     0.11200
H375        H  0.52773756  0.99314806  0.42961506     0.08700
H376        H  0.53225627  0.99333899  0.04132793     0.08600
C377        C  0.47305206  0.00136240  0.51329539    -0.13900
C378        C  0.49101048  0.99218002  0.48633245    -0.29100
H379        H  0.47919256  0.51321546  0.03623923     0.15100
H380        H  0.48026071  0.98297015  0.46269718     0.15600
C381        C  0.62775399  0.49617789  0.34760183    -0.16000
C382        C  0.61509428  0.49681308  0.37585423     0.08000
C383        C  0.60021549  0.49760058  0.40890872     0.09900
C384        C  0.58766147  0.49809977  0.43722983    -0.16900
C385        C  0.62734629  0.49752758  0.15429216    -0.16000
C386        C  0.61460553  0.49838865  0.12583211     0.08000
C387        C  0.59969767  0.49916724  0.09248536     0.09900
C388        C  0.58720181  0.49945090  0.06386974    -0.16900
C389        C  0.71112014  0.57858564  0.25061475    -0.16000
C390        C  0.72160955  0.60390807  0.24996494     0.08000
C391        C  0.73310061  0.63386110  0.24897583     0.09900
C392        C  0.74324566  0.65931007  0.24801288    -0.16900
C393        C  0.71229125  0.91001694  0.23724999    -0.16000
C394        C  0.72251788  0.88442621  0.23839444     0.08000
C395        C  0.73398790  0.85426397  0.23997753     0.09900
C396        C  0.74413761  0.82865194  0.24138148    -0.16900
C397        C  0.33234768  0.99617725  0.16829200    -0.16000
C398        C  0.34579476  0.99572377  0.14051525     0.08000
C399        C  0.36167422  0.99530498  0.10806295     0.09900
C400        C  0.37510742  0.99528642  0.08026440    -0.16900
C401        C  0.32804032  0.99576202  0.36117431    -0.16000
C402        C  0.34092789  0.99581273  0.38954030     0.08000
C403        C  0.35683506  0.99605470  0.42225792     0.09900
C404        C  0.37102646  0.99636579  0.44981522    -0.16900
C405        C  0.21125272  0.66385419  0.25175692    -0.16000
C406        C  0.22172344  0.63832220  0.25090262     0.08000
C407        C  0.23327090  0.60812803  0.24980748     0.09900
C408        C  0.24325230  0.58241346  0.24889929    -0.16900
C409        C  0.21222301  0.83254641  0.25679774    -0.16000
C410        C  0.22336970  0.85767581  0.25782791     0.08000
C411        C  0.23598413  0.88732093  0.25923524     0.09900
C412        C  0.24694123  0.91252557  0.26048006    -0.16900
C413        C  0.12696404  0.75019613  0.15779977    -0.16000
C414        C  0.11401534  0.75028154  0.12942762     0.08000
C415        C  0.09910897  0.75004263  0.09604474     0.09900
C416        C  0.08684413  0.74964163  0.06728961    -0.16900
C417        C  0.12912087  0.74861423  0.35064038    -0.16000
C418        C  0.11627776  0.74886499  0.37878179     0.08000
C419        C  0.10096112  0.74935976  0.41156611     0.09900
C420        C  0.08793850  0.74989406  0.43960069    -0.16900
C421        C  0.82346942  0.74038898  0.14848847    -0.16000
C422        C  0.83640799  0.73950325  0.12049435     0.08000
C423        C  0.85270549  0.73858484  0.08846850     0.09900
C424        C  0.86770364  0.73799312  0.06183224    -0.16900
C425        C  0.82501274  0.74269880  0.34194580    -0.16000
C426        C  0.83787766  0.74223637  0.37028897     0.08000
C427        C  0.85362703  0.74189718  0.40305429     0.09900
C428        C  0.86793453  0.74186875  0.43050890    -0.16900
C429        C  0.97141035  0.74195118  0.48730848    -0.13900
C430        C  0.99113202  0.75291896  0.51185036    -0.29100
H431        H  0.98052335  0.73250198  0.46305192     0.15100
H432        H  0.98470212  0.75675925  0.96315751     0.15600
C433        C  0.89227586  0.73931069  0.96748752     0.05600
C434        C  0.92471531  0.73797280  0.97132708    -0.10500
C435        C  0.93846371  0.73678558  0.00527761     0.03100
C436        C  0.92238050  0.74308987  0.52420599    -0.09100
C437        C  0.88985709  0.74343386  0.52624492     0.05600
C438        C  0.87182280  0.74308520  0.49532345    -0.08500
H439        H  0.93888803  0.73748452  0.94787347     0.11200
H440        H  0.93589627  0.74266954  0.54842831     0.08700
H441        H  0.84666247  0.74342541  0.49687469     0.08600
C442        C  0.07883365  0.75006771  0.96894490     0.05600
C443        C  0.09210457  0.75011971  0.00277508    -0.10500
C444        C  0.07616594  0.75136124  0.53718763     0.03100
C445        C  0.04372900  0.75235433  0.53908436    -0.09100
C446        C  0.02715387  0.74761535  0.99421267     0.05600
C447        C  0.04656219  0.74899340  0.96474418    -0.08500
H448        H  0.11715882  0.75103123  0.00595846     0.11200
H449        H  0.03266955  0.75299910  0.56469404     0.08700
H450        H  0.03651798  0.74903023  0.93836946     0.08600
In451      In  0.28909764  0.99869643  0.76298227     1.36900
C452        C  0.26314065  0.94423555  0.76059640     0.80100
O453        O  0.28830282  0.99942714  0.70376246    -0.58400
O454        O  0.33216689  0.99871649  0.73019128    -0.49300
C455        C  0.26824325  0.55320100  0.74718721     0.72700
O456        O  0.25222977  0.52933585  0.74599466    -0.44200
C457        C  0.31432384  0.99760301  0.82700606     0.77600
O458        O  0.24711941  0.96833884  0.76100656    -0.56000
O459        O  0.33036727  0.99692024  0.79938445    -0.46100
O460        O  0.29208208  0.94795555  0.76151745    -0.52400
C461        C  0.31747198  0.99908514  0.70128555     0.87600
O462        O  0.29716801  0.54896123  0.74848951    -0.54300
O463        O  0.28536151  0.99883254  0.82210106    -0.57600
In464      In  0.18115937  0.74846840  0.75348815     1.36900
C465        C  0.20640939  0.80325796  0.75453693     0.80100
O466        O  0.18228485  0.74985489  0.69435728    -0.58400
O467        O  0.13828602  0.74819000  0.71952325    -0.49300
C468        C  0.20787637  0.69385877  0.75135106     0.72700
O469        O  0.22335567  0.71802971  0.74951772    -0.44200
C470        C  0.15493493  0.74893784  0.81642170     0.77400
O471        O  0.22258273  0.77934351  0.75724611    -0.56000
O472        O  0.13926324  0.74838453  0.78820843    -0.46100
O473        O  0.17763972  0.79919596  0.75110079    -0.52400
C474        C  0.15314978  0.74923689  0.69105998     0.87600
O475        O  0.17902128  0.69754966  0.75450619    -0.54300
O476        O  0.18396789  0.74890681  0.81264578    -0.57600
In477      In  0.68250233  0.49746678  0.75143905     1.36900
C478        C  0.70311433  0.94209373  0.73647878     0.80100
O479        O  0.68408843  0.49879212  0.81068166    -0.58400
O480        O  0.63379667  0.99748587  0.76754514    -0.49300
C481        C  0.70959957  0.55165170  0.75060239     0.72700
O482        O  0.72490528  0.52721202  0.74827552    -0.44200
C483        C  0.65533806  0.49889114  0.68839290     0.77400
O484        O  0.71903621  0.96600545  0.73487598    -0.56000
O485        O  0.64017650  0.50052526  0.71660710    -0.46100
O486        O  0.67419211  0.94639606  0.73725170    -0.52400
C487        C  0.65500541  0.49776293  0.81377939     0.87600
O488        O  0.68070187  0.54845012  0.75344022    -0.54300
O489        O  0.68434064  0.49646257  0.69222384    -0.57600
In490      In  0.79364422  0.74740664  0.74660250     1.36900
C491        C  0.76924329  0.69197596  0.74742364     0.80100
O492        O  0.79132072  0.74556154  0.68732985    -0.58400
O493        O  0.83577013  0.74805235  0.71209392    -0.49300
C494        C  0.76596563  0.80193963  0.74479669     0.72700
O495        O  0.75079094  0.77753115  0.74560792    -0.44200
C496        C  0.82154805  0.74713564  0.80944792     0.77400
O497        O  0.75263632  0.71570658  0.74784460    -0.56000
O498        O  0.83639230  0.74843072  0.78100413    -0.46100
O499        O  0.79805624  0.69651240  0.74645994    -0.52400
C500        C  0.82036796  0.74651566  0.68373873     0.87600
O501        O  0.79502202  0.79854797  0.74529826    -0.54300
O502        O  0.79242340  0.74649689  0.80599071    -0.57600
C503        C  0.38814690  0.99656941  0.98287319     0.05600
C504        C  0.37320284  0.99524575  0.01545724    -0.10500
C505        C  0.39051505  0.99698456  0.54618905     0.03100
C506        C  0.42297979  0.99867586  0.54530038    -0.09100
C507        C  0.43848173  0.99850890  0.01280973     0.05600
C508        C  0.42057942  0.99836107  0.98148933    -0.08500
H509        H  0.34805466  0.99404537  0.01644701     0.11200
H510        H  0.43608774  0.99951275  0.56986554     0.08700
H511        H  0.43142670  0.00029762  0.95594883     0.08600
C512        C  0.57751327  0.49923932  0.53508901     0.05600
C513        C  0.59119742  0.49992805  0.99921076    -0.10500
C514        C  0.57730673  0.49868928  0.96572722     0.03100
C515        C  0.54047696  0.99796077  0.95194892    -0.09100
C516        C  0.52519104  0.99623768  0.98455180     0.05600
C517        C  0.54309501  0.99536045  0.51802628    -0.08500
H518        H  0.61628842  0.50113874  0.00174327     0.11200
H519        H  0.52710238  0.99780025  0.92754887     0.08700
H520        H  0.53198579  0.99428494  0.54350348     0.08600
C521        C  0.47296176  0.00087394  0.01267708    -0.13900
C522        C  0.49074080  0.99368981  0.98468630    -0.29100
H523        H  0.47920092  0.50910298  0.46167170     0.15100
H524        H  0.47989669  0.98581203  0.96048443     0.15600
C525        C  0.64006723  0.49817627  0.84744513    -0.16000
C526        C  0.62698629  0.49856920  0.87541901     0.08000
C527        C  0.61083535  0.49889296  0.90764098     0.09900
C528        C  0.59611856  0.49894375  0.93454132    -0.16900
C529        C  0.64056122  0.49967875  0.65436080    -0.16000
C530        C  0.62744933  0.50017993  0.62615362     0.08000
C531        C  0.61113489  0.50042769  0.59372908     0.09900
C532        C  0.59629697  0.50019500  0.56663184    -0.16900
C533        C  0.72383204  0.58112167  0.74999379    -0.16000
C534        C  0.73458985  0.60638976  0.74943298     0.08000
C535        C  0.74640205  0.63631560  0.74871252     0.09900
C536        C  0.75645652  0.66186434  0.74808395    -0.16900
C537        C  0.71677946  0.91207610  0.73765854    -0.16000
C538        C  0.72761183  0.88665088  0.73917995     0.08000
C539        C  0.74020359  0.85680274  0.74131878     0.09900
C540        C  0.75141476  0.83154480  0.74310817    -0.16900
C541        C  0.33288781  0.99886476  0.66791978    -0.16000
C542        C  0.34600515  0.99827978  0.63998138     0.08000
C543        C  0.36149294  0.99743423  0.60735976     0.09900
C544        C  0.37474682  0.99695371  0.57949538    -0.16900
C545        C  0.32815540  0.99708215  0.86154391    -0.16000
C546        C  0.34059762  0.99676735  0.89013815     0.08000
C547        C  0.35613777  0.99655688  0.92304746     0.09900
C548        C  0.37025659  0.99650137  0.95063660    -0.16900
C549        C  0.22187552  0.66415295  0.74986563    -0.16000
C550        C  0.23247454  0.63871521  0.74874023     0.08000
C551        C  0.24430600  0.60867726  0.74774997     0.09900
C552        C  0.25470896  0.58314498  0.74726476    -0.16900
C553        C  0.21953318  0.83311491  0.75550147    -0.16000
C554        C  0.22919106  0.85874228  0.75651653     0.08000
C555        C  0.23992145  0.88895053  0.75788237     0.09900
C556        C  0.24969087  0.91453059  0.75912801    -0.16900
C557        C  0.13794475  0.74972774  0.65729423    -0.16000
C558        C  0.12480045  0.75016185  0.62912180     0.08000
C559        C  0.10879952  0.75066696  0.59652577     0.09900
C560        C  0.09439655  0.75105414  0.56914346    -0.16900
C561        C  0.14069718  0.74970440  0.85041248    -0.16000
C562        C  0.12821911  0.75041286  0.87869839     0.08000
C563        C  0.11265608  0.75092295  0.91122980     0.09900
C564        C  0.09810153  0.75084281  0.93820440    -0.16900
C565        C  0.83491761  0.74582287  0.64980519    -0.16000
C566        C  0.84741690  0.74519472  0.62145851     0.08000
C567        C  0.86225544  0.74451125  0.58837358     0.09900
C568        C  0.87492633  0.74399635  0.56011705    -0.16900
C569        C  0.83680175  0.74604485  0.84329442    -0.16000
C570        C  0.84994888  0.74457114  0.87149791     0.08000
C571        C  0.86538439  0.74259892  0.90449238     0.09900
C572        C  0.87812976  0.74097789  0.93292320    -0.16900
C573        C  0.97263412  0.73595136  0.01112856    -0.13900
C574        C  0.99305076  0.74732480  0.98800105    -0.29100
H575        H  0.98099837  0.72654818  0.03598805     0.15100
H576        H  0.98203484  0.76237044  0.53610891     0.15600
loop_ 
_geom_bond_atom_site_label_1 
_geom_bond_atom_site_label_2 
_geom_bond_distance 
_geom_bond_site_symmetry_2 
_ccdc_geom_bond_type 
C1            C2   1.399       .  A
C1          C150   1.398       .  A
C1          C140   1.437       .  S
C2            C3   1.403       .  A
C2            H7   1.085       .  S
C3          C148   1.411       .  A
C3          C141   1.486       .  S
C4            C5   1.398       .  A
C4          C147   1.401       .  A
C4            H8   1.085       .  S
C5            C6   1.399   1_554  A
C5          C136   1.436       .  S
C6          C145   1.400       .  A
C6            H9   1.085       .  S
C10          C11   1.400       .  A
C10          C15   1.403       .  A
C10         C132   1.440       .  S
C11         C156   1.399       .  A
C11          H16   1.085       .  S
C12          C13   1.403       .  A
C12         C155   1.399       .  A
C12         C128   1.440       .  S
C13         C158   1.411   1_554  A
C13          H17   1.082       .  S
C14          C15   1.410       .  A
C14         C157   1.402       .  A
C14         C142   1.485   1_455  S
C15          H18   1.082       .  S
In19         O21   2.246       .  S
In19         O22   2.241       .  S
In19         O26   2.259       .  S
In19         O27   2.243       .  S
In19         O28   2.244       .  S
In19         O31   2.243       .  S
In19        O318   2.246       .  S
In19        O312   2.258       .  S
C20         C124   1.439       .  S
C20          O26   1.261       .  A
C20          O28   1.258       .  A
O21          C29   1.260       .  A
O22          C29   1.259       .  A
C23         C120   1.440       .  S
C23          O30   1.258       .  A
C23          O24   1.261       .  A
O24        In307   2.259   1_545  S
C25         C113   1.432       .  S
C25          O27   1.260       .  A
C25          O31   1.259       .  A
C29         C109   1.433       .  S
O30        In307   2.249   1_545  S
In32         O34   2.249       .  S
In32         O35   2.246       .  S
In32         O43   2.248       .  S
In32         O37   2.260       .  S
In32         O39   2.259       .  S
In32         O40   2.247       .  S
In32         O41   2.247       .  S
In32         O44   2.249       .  S
C33         C121   1.439       .  S
C33          O39   1.261       .  A
C33          O41   1.258       .  A
O34          C42   1.259       .  A
O35          C42   1.259       .  A
C36         C117   1.439       .  S
C36          O43   1.258       .  A
C36          O37   1.260       .  A
C38         C129   1.435       .  S
C38          O40   1.259       .  A
C38          O44   1.259       .  A
C42         C125   1.435       .  S
In45         O47   2.240       .  S
In45         O56   2.240   1_565  S
In45         O50   2.252   1_565  S
In45         O53   2.240       .  S
In45         O57   2.244       .  S
In45        O336   2.242       .  S
In45        O340   2.255       .  S
In45        O342   2.241       .  S
C46         C105   1.438       .  S
C46          O52   1.260       .  A
C46          O54   1.258       .  A
O47          C55   1.259       .  A
O48        In333   2.246       .  S
O48         C343   1.259       .  A
C49         C101   1.435       .  S
C49          O56   1.258       .  A
C49          O50   1.261       .  A
C51          C97   1.432       .  S
C51          O53   1.259       .  A
C51          O57   1.259       .  A
O52        In333   2.257       .  S
O54        In333   2.246       .  S
C55          C93   1.432       .  S
C55         O336   1.260       .  A
In58         O60   2.242       .  S
In58         O61   2.243       .  S
In58         O69   2.247       .  S
In58         O63   2.256       .  S
In58         O65   2.250       .  S
In58         O66   2.243       .  S
In58         O67   2.238       .  S
In58         O70   2.244       .  S
C59         C104   1.434       .  S
C59          O65   1.261       .  A
C59          O67   1.258       .  A
O60          C68   1.259       .  A
O61          C68   1.260       .  A
C62         C108   1.438       .  S
C62          O69   1.258       .  A
C62          O63   1.260       .  A
C64         C137   1.432       .  S
C64          O66   1.259       .  A
C64          O70   1.259       .  A
C68         C133   1.432       .  S
C71          C72   1.398       .  A
C71          C76   1.399       .  A
C71         C116   1.437       .  S
C72         C217   1.399       .  A
C72          H77   1.085       .  S
C73          C74   1.400       .  A
C73         C216   1.398   1_554  A
C73         C112   1.438       .  S
C74         C219   1.404       .  A
C74          H78   1.085       .  S
C75          C76   1.404       .  A
C75         C218   1.411       .  A
C75          C89   1.487       .  S
C76          H79   1.085       .  S
C80         C225   1.398   1_554  A
C80         C373   1.400       .  A
C80         C100   1.437       .  S
C81          C82   1.398       .  A
C81         C224   1.398       .  A
C81          H86   1.085       .  S
C82         C371   1.400       .  A
C82          C96   1.437       .  S
C83          C84   1.411       .  A
C83         C370   1.402       .  A
C83          H87   1.082       .  S
C84         C229   1.404       .  A
C84          C90   1.486       .  S
C85         C368   1.402       .  A
C85         C228   1.410   1_554  A
C85          H88   1.082       .  S
C89          C90   1.346       .  D
C89         H523   1.085       .  S
C90          H92   1.084       .  S
H91         C521   1.084       .  S
C93          C94   1.204       .  T
C94          C95   1.409       .  S
C95          C96   1.204       .  T
C97          C98   1.204       .  T
C98          C99   1.409       .  S
C99         C100   1.204       .  T
C101        C102   1.205       .  T
C102        C103   1.411       .  S
C103        C104   1.205       .  T
C105        C106   1.207       .  T
C106        C107   1.415       .  S
C107        C108   1.207       .  T
C109        C110   1.204       .  T
C110        C111   1.410       .  S
C111        C112   1.204       .  T
C113        C114   1.204       .  T
C114        C115   1.409       .  S
C115        C116   1.204       .  T
C117        C118   1.208       .  T
C118        C119   1.416       .  S
C119        C120   1.208       .  T
C121        C122   1.208       .  T
C122        C123   1.416       .  S
C123        C124   1.208       .  T
C125        C126   1.206       .  T
C126        C127   1.412       .  S
C127        C128   1.206       .  T
C129        C130   1.206       .  T
C130        C131   1.412       .  S
C131        C132   1.206       .  T
C133        C134   1.204       .  T
C134        C135   1.408       .  S
C135        C136   1.204       .  T
C137        C138   1.204       .  T
C138        C139   1.409       .  S
C139        C140   1.204       .  T
C141        C142   1.346       .  D
C141        H143   1.085       .  S
C142        H288   1.084       .  S
H144        C286   1.085       .  S
C145        C146   1.403       .  A
C145        C284   1.442       .  S
C146        C147   1.411   1_556  A
C146        H151   1.082       .  S
C147        C285   1.484       .  S
C148        C149   1.402       .  A
C148        H152   1.082       .  S
C149        C150   1.399       .  A
C149        C280   1.440       .  S
C150        H153   1.085       .  S
C154        C155   1.397   1_556  A
C154        C159   1.398       .  A
C154        C276   1.435       .  S
C155        H160   1.085       .  S
C156        C157   1.398       .  A
C156        C272   1.437       .  S
C157        H161   1.085       .  S
C158        C159   1.402       .  A
C158        C286   1.485   1_455  S
C159        H162   1.085       .  S
In163       O165   2.249       .  S
In163       O166   2.244       .  S
In163       O462   2.243       .  S
In163       O456   2.256       .  S
In163       O170   2.252       .  S
In163       O171   2.242       .  S
In163       O172   2.239       .  S
In163       O175   2.246       .  S
C164        C268   1.433       .  S
C164        O170   1.260       .  A
C164        O172   1.258       .  A
O165        C173   1.259       .  A
O166        C173   1.258       .  A
C167        C264   1.433       .  S
C167        O174   1.258       .  A
C167        O168   1.261       .  A
O168       In451   2.251   1_545  S
C169        C257   1.433       .  S
C169        O171   1.259       .  A
C169        O175   1.259       .  A
C173        C253   1.434       .  S
O174       In451   2.235   1_545  S
In176       O178   2.242       .  S
In176       O179   2.241       .  S
In176       O187   2.237       .  S
In176       O181   2.252       .  S
In176       O183   2.248       .  S
In176       O184   2.236       .  S
In176       O185   2.236       .  S
In176       O188   2.241       .  S
C177        C265   1.433       .  S
C177        O183   1.261       .  A
C177        O185   1.258       .  A
O178        C186   1.259       .  A
O179        C186   1.259       .  A
C180        C261   1.433       .  S
C180        O187   1.258       .  A
C180        O181   1.260       .  A
C182        C273   1.430       .  S
C182        O184   1.259       .  A
C182        O188   1.259       .  A
C186        C269   1.431       .  S
In189       O191   2.249       .  S
In189       O480   2.243       .  S
In189       O200   2.248   1_565  S
In189       O194   2.261   1_565  S
In189       O484   2.262       .  S
In189       O197   2.241       .  S
In189       O486   2.253       .  S
In189       O201   2.248       .  S
C190        C249   1.439       .  S
C190        O196   1.261       .  A
C190        O198   1.258       .  A
O191        C199   1.260       .  A
O192       In477   2.244       .  S
O192        C487   1.259       .  A
C193        C245   1.439       .  S
C193        O200   1.258       .  A
C193        O194   1.261       .  A
C195        C241   1.432       .  S
C195        O197   1.258       .  A
C195        O201   1.259       .  A
O196       In477   2.257       .  S
O198       In477   2.247       .  S
C199        C237   1.434       .  S
C199        O480   1.259       .  A
In202       O204   2.253       .  S
In202       O205   2.245       .  S
In202       O213   2.249       .  S
In202       O207   2.259       .  S
In202       O209   2.261       .  S
In202       O210   2.246       .  S
In202       O211   2.246       .  S
In202       O214   2.250       .  S
C203        C248   1.439       .  S
C203        O209   1.261       .  A
C203        O211   1.258       .  A
O204        C212   1.259       .  A
O205        C212   1.258       .  A
C206        C252   1.439       .  S
C206        O213   1.258       .  A
C206        O207   1.260       .  A
C208        C281   1.436       .  S
C208        O210   1.259       .  A
C208        O214   1.260       .  A
C212        C277   1.436       .  S
C215        C216   1.399       .  A
C215        C220   1.402       .  A
C215        C260   1.439       .  S
C216        H221   1.085       .  S
C217        C218   1.402       .  A
C217        C256   1.439       .  S
C218        H222   1.082       .  S
C219        C220   1.410   1_554  A
C219        C233   1.485       .  S
C220        H223   1.082       .  S
C224        C517   1.401       .  A
C224        C244   1.437       .  S
C225        C226   1.399       .  A
C225        H230   1.085   1_565  S
C226        C515   1.402       .  A
C226        C240   1.440   1_565  S
C227        C514   1.399       .  A
C227        C228   1.403       .  A
C227        H231   1.085       .  S
C228        C234   1.485       .  S
C229        C512   1.399       .  A
C229        H232   1.085       .  S
C233        C234   1.346   1_554  D
C233        H379   1.085       .  S
C234        H236   1.085       .  S
H235        C377   1.084       .  S
C237        C238   1.205   1_565  T
C238        C239   1.411       .  S
C239        C240   1.205       .  T
C241        C242   1.204       .  T
C242        C243   1.409       .  S
C243        C244   1.204       .  T
C245        C246   1.208       .  T
C246        C247   1.416       .  S
C247        C248   1.208       .  T
C249        C250   1.208       .  T
C250        C251   1.416       .  S
C251        C252   1.208       .  T
C253        C254   1.205       .  T
C254        C255   1.411       .  S
C255        C256   1.205       .  T
C257        C258   1.205       .  T
C258        C259   1.410       .  S
C259        C260   1.205       .  T
C261        C262   1.204       .  T
C262        C263   1.410       .  S
C263        C264   1.204       .  T
C265        C266   1.204       .  T
C266        C267   1.410       .  S
C267        C268   1.204       .  T
C269        C270   1.203       .  T
C270        C271   1.408       .  S
C271        C272   1.204       .  T
C273        C274   1.202       .  T
C274        C275   1.406       .  S
C275        C276   1.202       .  T
C277        C278   1.206       .  T
C278        C279   1.412       .  S
C279        C280   1.206       .  T
C281        C282   1.206       .  T
C282        C283   1.413       .  S
C283        C284   1.207       .  T
C285        C286   1.344   1_554  D
C285        H287   1.085       .  S
C289        C290   1.399       .  A
C289        C438   1.399       .  A
C289        C428   1.437       .  S
C290        C291   1.403       .  A
C290        H295   1.085       .  S
C291        C436   1.410       .  A
C291        C429   1.485       .  S
C292        C435   1.402       .  A
C292        C293   1.398       .  A
C292        H296   1.085       .  S
C293        C294   1.398   1_554  A
C293        C424   1.435       .  S
C294        C433   1.399       .  A
C294        H297   1.085       .  S
C298        C299   1.399       .  A
C298        C303   1.402       .  A
C298        C420   1.440       .  S
C299        C444   1.398       .  A
C299        H304   1.085       .  S
C300        C443   1.400       .  A
C300        C301   1.403       .  A
C300        C416   1.441       .  S
C301        C446   1.411   1_554  A
C301        H305   1.082       .  S
C302        C445   1.403       .  A
C302        C303   1.410       .  A
C302        C430   1.485   1_455  S
C303        H306   1.082       .  S
In307       O309   2.248       .  S
In307       O310   2.245       .  S
In307       O314   2.261       .  S
In307       O315   2.242       .  S
In307       O316   2.249       .  S
In307       O319   2.251       .  S
C308        C412   1.440       .  S
C308        O314   1.261       .  A
C308        O316   1.258       .  A
O309        C317   1.259       .  A
O310        C317   1.259       .  A
C311        C408   1.439       .  S
C311        O318   1.258       .  A
C311        O312   1.261       .  A
C313        C401   1.434       .  S
C313        O315   1.259       .  A
C313        O319   1.260       .  A
C317        C397   1.435       .  S
In320       O322   2.251       .  S
In320       O323   2.248       .  S
In320       O331   2.249       .  S
In320       O325   2.260       .  S
In320       O327   2.259       .  S
In320       O328   2.244       .  S
In320       O329   2.250       .  S
In320       O332   2.250       .  S
C321        C409   1.440       .  S
C321        O327   1.260       .  A
C321        O329   1.258       .  A
O322        C330   1.259       .  A
O323        C330   1.259       .  A
C324        C405   1.439       .  S
C324        O331   1.258       .  A
C324        O325   1.260       .  A
C326        C417   1.435       .  S
C326        O328   1.259       .  A
C326        O332   1.259       .  A
C330        C413   1.436       .  S
In333       O335   2.250       .  S
In333       O344   2.240       .  S
In333       O338   2.255       .  S
In333       O341   2.246       .  S
In333       O345   2.249       .  S
C334        C393   1.436       .  S
C334        O340   1.261       .  A
C334        O342   1.258       .  A
O335        C343   1.259       .  A
C337        C389   1.434       .  S
C337        O344   1.258       .  A
C337        O338   1.260       .  A
C339        C385   1.435       .  S
C339        O341   1.259       .  A
C339        O345   1.259       .  A
C343        C381   1.435       .  S
In346       O348   2.242       .  S
In346       O349   2.237       .  S
In346       O357   2.242       .  S
In346       O351   2.254       .  S
In346       O353   2.252       .  S
In346       O354   2.241       .  S
In346       O355   2.237       .  S
In346       O358   2.243       .  S
C347        C392   1.434       .  S
C347        O353   1.261       .  A
C347        O355   1.258       .  A
O348        C356   1.259       .  A
O349        C356   1.259       .  A
C350        C396   1.437       .  S
C350        O357   1.258       .  A
C350        O351   1.261       .  A
C352        C425   1.432       .  S
C352        O354   1.259       .  A
C352        O358   1.259       .  A
C356        C421   1.430       .  S
C359        C360   1.399       .  A
C359        C364   1.400       .  A
C359        C404   1.439       .  S
C360        C505   1.399       .  A
C360        H365   1.085       .  S
C361        C504   1.399       .  A
C361        C362   1.402       .  A
C361        C400   1.440       .  S
C362        C507   1.407       .  A
C362        H366   1.085       .  S
C363        C506   1.404       .  A
C363        C364   1.409       .  A
C363        C377   1.485   1_565  S
C364        H367   1.082   1_565  S
C368        C513   1.400   1_554  A
C368        C388   1.440       .  S
C369        C512   1.398       .  A
C369        C370   1.399       .  A
C369        H374   1.085       .  S
C370        C384   1.440       .  S
C371        C372   1.404       .  A
C371        H375   1.085       .  S
C372        C517   1.409       .  A
C372        C378   1.485       .  S
C373        C516   1.408   1_554  A
C373        H376   1.082       .  S
C377        C378   1.347   1_545  D
C378        H380   1.085       .  S
C381        C382   1.205       .  T
C382        C383   1.412       .  S
C383        C384   1.206       .  T
C385        C386   1.206       .  T
C386        C387   1.412       .  S
C387        C388   1.206       .  T
C389        C390   1.205       .  T
C390        C391   1.411       .  S
C391        C392   1.205       .  T
C393        C394   1.206       .  T
C394        C395   1.413       .  S
C395        C396   1.206       .  T
C397        C398   1.205       .  T
C398        C399   1.412       .  S
C399        C400   1.206       .  T
C401        C402   1.205       .  T
C402        C403   1.411       .  S
C403        C404   1.205       .  T
C405        C406   1.208       .  T
C406        C407   1.416       .  S
C407        C408   1.208       .  T
C409        C410   1.208       .  T
C410        C411   1.417       .  S
C411        C412   1.209       .  T
C413        C414   1.206       .  T
C414        C415   1.413       .  S
C415        C416   1.206       .  T
C417        C418   1.205       .  T
C418        C419   1.411       .  S
C419        C420   1.205       .  T
C421        C422   1.203       .  T
C422        C423   1.407       .  S
C423        C424   1.203       .  T
C425        C426   1.204       .  T
C426        C427   1.409       .  S
C427        C428   1.204       .  T
C429        C430   1.346       .  D
C429        H431   1.085       .  S
C430        H576   1.085       .  S
H432        C574   1.085       .  S
C433        C434   1.403       .  A
C433        C572   1.441       .  S
C434        C435   1.412   1_556  A
C434        H439   1.082       .  S
C435        C573   1.485       .  S
C436        C437   1.402       .  A
C436        H440   1.082       .  S
C437        C438   1.399       .  A
C437        C568   1.440       .  S
C438        H441   1.085       .  S
C442        C443   1.398   1_556  A
C442        C447   1.398       .  A
C442        C564   1.436       .  S
C443        H448   1.085       .  S
C444        C445   1.399       .  A
C444        C560   1.437       .  S
C445        H449   1.085       .  S
C446        C447   1.402       .  A
C446        C574   1.484   1_455  S
C447        H450   1.085       .  S
In451       O453   2.243       .  S
In451       O454   2.240       .  S
In451       O458   2.254       .  S
In451       O459   2.240       .  S
In451       O460   2.236       .  S
In451       O463   2.247       .  S
C452        C556   1.434       .  S
C452        O458   1.261       .  A
C452        O460   1.257       .  A
O453        C461   1.260       .  A
O454        C461   1.260       .  A
C455        C552   1.437       .  S
C455        O462   1.258       .  A
C455        O456   1.260       .  A
C457        C545   1.433       .  S
C457        O459   1.259       .  A
C457        O463   1.259       .  A
C461        C541   1.433       .  S
In464       O466   2.242       .  S
In464       O467   2.240       .  S
In464       O475   2.243       .  S
In464       O469   2.255       .  S
In464       O471   2.252       .  S
In464       O472   2.241       .  S
In464       O473   2.237       .  S
In464       O476   2.243       .  S
C465        C553   1.433       .  S
C465        O471   1.261       .  A
C465        O473   1.258       .  A
O466        C474   1.259       .  A
O467        C474   1.259       .  A
C468        C549   1.437       .  S
C468        O475   1.258       .  A
C468        O469   1.261       .  A
C470        C561   1.431       .  S
C470        O472   1.259       .  A
C470        O476   1.259       .  A
C474        C557   1.432       .  S
In477       O479   2.245       .  S
In477       O488   2.245       .  S
In477       O482   2.256       .  S
In477       O485   2.243       .  S
In477       O489   2.246       .  S
C478        C537   1.442       .  S
C478        O484   1.261       .  A
C478        O486   1.258       .  A
O479        C487   1.259       .  A
C481        C533   1.438       .  S
C481        O488   1.258       .  A
C481        O482   1.261       .  A
C483        C529   1.433       .  S
C483        O485   1.259       .  A
C483        O489   1.259       .  A
C487        C525   1.433       .  S
In490       O492   2.248       .  S
In490       O493   2.245       .  S
In490       O501   2.251       .  S
In490       O495   2.264       .  S
In490       O497   2.257       .  S
In490       O498   2.246       .  S
In490       O499   2.245       .  S
In490       O502   2.251       .  S
C491        C536   1.438       .  S
C491        O497   1.261       .  A
C491        O499   1.258       .  A
O492        C500   1.260       .  A
O493        C500   1.259       .  A
C494        C540   1.442       .  S
C494        O501   1.258       .  A
C494        O495   1.261       .  A
C496        C569   1.436       .  S
C496        O498   1.259       .  A
C496        O502   1.259       .  A
C500        C565   1.435       .  S
C503        C504   1.398   1_556  A
C503        C508   1.400       .  A
C503        C548   1.438       .  S
C504        H509   1.085       .  S
C505        C506   1.400       .  A
C505        C544   1.438       .  S
C506        H510   1.085       .  S
C507        C508   1.409   1_554  A
C507        C521   1.488   1_565  S
C508        H511   1.081   1_565  S
C512        C532   1.437       .  S
C513        C514   1.399       .  A
C513        H518   1.085   1_556  S
C514        C528   1.438       .  S
C515        C516   1.407       .  A
C515        H519   1.085       .  S
C516        C522   1.487       .  S
C517        H520   1.082       .  S
C521        C522   1.350   1_544  D
C522        H524   1.084       .  S
C525        C526   1.204       .  T
C526        C527   1.410       .  S
C527        C528   1.205       .  T
C529        C530   1.204       .  T
C530        C531   1.409       .  S
C531        C532   1.204       .  T
C533        C534   1.207       .  T
C534        C535   1.415       .  S
C535        C536   1.207       .  T
C537        C538   1.210       .  T
C538        C539   1.419       .  S
C539        C540   1.210       .  T
C541        C542   1.204       .  T
C542        C543   1.410       .  S
C543        C544   1.204       .  T
C545        C546   1.204       .  T
C546        C547   1.409       .  S
C547        C548   1.204       .  T
C549        C550   1.206       .  T
C550        C551   1.413       .  S
C551        C552   1.206       .  T
C553        C554   1.205       .  T
C554        C555   1.411       .  S
C555        C556   1.205       .  T
C557        C558   1.203       .  T
C558        C559   1.408       .  S
C559        C560   1.204       .  T
C561        C562   1.203       .  T
C562        C563   1.408       .  S
C563        C564   1.203       .  T
C565        C566   1.206       .  T
C566        C567   1.412       .  S
C567        C568   1.206       .  T
C569        C570   1.206       .  T
C570        C571   1.412       .  S
C571        C572   1.206       .  T
C573        C574   1.344   1_554  D
C573        H575   1.085       .  S
