geometry optimzed in LAMMPS
_audit_creation_date              2020-11-30 
_audit_creation_method            'lammps2cif' 
_symmetry_space_group_name_H-M    'P1' 
_symmetry_Int_Tables_number       1 
_symmetry_cell_setting            triclinic 
loop_ 
_symmetry_equiv_pos_as_xyz 
  x,y,z 
_cell_length_a                    45.43270288 
_cell_length_b                    45.6925476508822 
_cell_length_c                    23.859842349774013 
_cell_angle_alpha                 90.02367704449058 
_cell_angle_beta                  89.70170858599727 
_cell_angle_gamma                 89.93076371877326 
loop_ 
_atom_site_label 
_atom_site_type_symbol 
_atom_site_fract_x 
_atom_site_fract_y 
_atom_site_fract_z 
_atom_site_charge 
C1          C  0.35010473  0.09097064  0.33482998     0.80500
N2          N  0.34833160  0.07030337  0.29405461    -0.77800
C3          C  0.32593961  0.05066423  0.29440671     0.83000
N4          N  0.30546787  0.05147204  0.33605533    -0.77700
C5          C  0.30727750  0.07199047  0.37713743     0.83100
N6          N  0.32948138  0.09183823  0.37626322    -0.79400
O7          O  0.51314654  0.26128225  0.38080150    -0.74100
O8          O  0.57264108  0.32080635  0.37964255    -0.74100
O9          O  0.51290074  0.32057739  0.38356839    -0.74200
O10         O  0.57267036  0.26161786  0.37712252    -0.74200
O11         O  0.57241419  0.26356553  0.28364313    -0.74200
O12         O  0.51061692  0.32063414  0.29013270    -0.74200
O13         O  0.57024524  0.32278715  0.28629582    -0.74100
O14         O  0.51281344  0.26150207  0.28731556    -0.74200
Ni15       Ni  0.54287442  0.29105496  0.38362328     1.25400
Ni16       Ni  0.54146184  0.29217901  0.28350056     1.25400
C17         C  0.50345898  0.25135492  0.33417021     0.88100
C18         C  0.58116416  0.33158169  0.33272128     0.88000
C19         C  0.50176264  0.33009504  0.33788094     0.88000
C20         C  0.58248909  0.25304392  0.32946578     0.88200
C21         C  0.74086026  0.09571482  0.32465788     0.80500
N22         N  0.76347419  0.09546746  0.36180281    -0.77800
C23         C  0.78381193  0.07369173  0.36118109     0.83000
N24         N  0.78245509  0.05244864  0.32151385    -0.77700
C25         C  0.76032013  0.05266067  0.28352840     0.83100
N26         N  0.73939394  0.07385243  0.28600639    -0.79400
C27         C  0.34712925  0.49046982  0.32974616     0.80500
N28         N  0.34771762  0.51217455  0.29067622    -0.77800
C29         C  0.32596692  0.53259662  0.28875857     0.83000
N30         N  0.30400730  0.53217377  0.32773313    -0.77700
C31         C  0.30357568  0.51090416  0.36750158     0.83100
N32         N  0.32463577  0.48994587  0.36740074    -0.79400
C33         C  0.74129084  0.48587770  0.31538775     0.80500
N34         N  0.76277515  0.48694078  0.35476673    -0.77800
C35         C  0.78348795  0.50830311  0.35335097     0.83000
N36         N  0.78340864  0.52824081  0.31105820    -0.77700
C37         C  0.76231675  0.52703393  0.27089218     0.83100
N38         N  0.74104986  0.50622005  0.27377484    -0.79400
C39         C  0.34446561  0.98519396  0.21077502     0.80500
N40         N  0.34505822  0.00634130  0.25076117    -0.77800
C41         C  0.32464849  0.02800727  0.25114203     0.83000
N42         N  0.30368835  0.02887414  0.21070837    -0.77700
C43         C  0.30309561  0.00784801  0.17036554     0.83100
N44         N  0.32333664  0.98599666  0.17072995    -0.79400
O45         O  0.57650711  0.76138603  0.24059481    -0.74100
O46         O  0.51667391  0.82083311  0.24593454    -0.74100
O47         O  0.51685353  0.76155047  0.24718282    -0.74200
O48         O  0.57599637  0.82080820  0.24036414    -0.74200
O49         O  0.57401063  0.82031850  0.14692427    -0.74200
O50         O  0.51404481  0.76153321  0.15382074    -0.74200
O51         O  0.51431785  0.82033240  0.15318115    -0.74100
O52         O  0.57353150  0.76086067  0.14726364    -0.74200
Ni53       Ni  0.54664997  0.79112213  0.24685801     1.25400
Ni54       Ni  0.54398255  0.79075772  0.14698512     1.25400
C55         C  0.58458526  0.75115204  0.19286897     0.88100
C56         C  0.50528245  0.83034974  0.20035241     0.88000
C57         C  0.50538051  0.75218199  0.20171164     0.88000
C58         C  0.58446478  0.83054483  0.19269719     0.88200
C59         C  0.73768168  0.99059748  0.19414432     0.80500
N60         N  0.73813587  0.01064743  0.23623912    -0.77800
C61         C  0.75978744  0.03107380  0.23817485     0.83000
N62         N  0.78090278  0.03160796  0.19761418    -0.77700
C63         C  0.78030422  0.01181659  0.15515349     0.83100
N64         N  0.75887579  0.99117020  0.15382106    -0.79400
C65         C  0.34623516  0.59746780  0.20431881     0.80500
N66         N  0.34646348  0.57635184  0.24446251    -0.77800
C67         C  0.32603126  0.55471230  0.24421495     0.83000
N68         N  0.30566269  0.55368500  0.20267963    -0.77700
C69         C  0.30551579  0.57449252  0.16194314     0.83100
N70         N  0.32550364  0.59655090  0.16342048    -0.79400
C71         C  0.73852502  0.58964096  0.18392429     0.80500
N72         N  0.73895687  0.56815515  0.22333867    -0.77800
C73         C  0.76164593  0.54887621  0.22587641     0.83000
N74         N  0.78372826  0.55027544  0.18728575    -0.77700
C75         C  0.78316562  0.57122019  0.14683477     0.83100
N76         N  0.76093251  0.59107682  0.14598020    -0.79400
O77         O  0.07293663  0.81953847  0.12894850    -0.74100
O78         O  0.01392777  0.76002521  0.12125937    -0.74100
O79         O  0.07354548  0.76022840  0.11970982    -0.74200
O80         O  0.01322191  0.81890040  0.13027819    -0.74200
O81         O  0.01239683  0.82193262  0.03704150    -0.74200
O82         O  0.07406390  0.76491696  0.02660380    -0.74200
O83         O  0.01440542  0.76309289  0.02790308    -0.74100
O84         O  0.07178591  0.82412106  0.03583336    -0.74200
Ni85       Ni  0.04349716  0.78953338  0.12840346     1.25400
Ni86       Ni  0.04320484  0.79363879  0.02853833     1.25400
C87         C  0.08167763  0.83192538  0.08370259     0.88100
C88         C  0.00433549  0.75194094  0.07333115     0.88000
C89         C  0.08364245  0.75288191  0.07143388     0.88000
C90         C  0.00255127  0.82974992  0.08519784     0.88200
C91         C  0.23807508  0.98895391  0.08551081     0.80500
N92         N  0.25903003  0.98836281  0.12593882    -0.77800
C93         C  0.28082907  0.00862597  0.12630498     0.83000
N94         N  0.28216402  0.02918292  0.08523899    -0.77700
C95         C  0.26143598  0.02965086  0.04437691     0.83100
N96         N  0.23926499  0.00980107  0.04504047    -0.79400
C97         C  0.24173982  0.59544247  0.07462774     0.80500
N98         N  0.26333118  0.59600397  0.11391864    -0.77800
C99         C  0.28319261  0.57386536  0.11764620     0.83000
N100        N  0.28230068  0.55141898  0.08021172    -0.77700
C101        C  0.26114768  0.55092206  0.04007722     0.83100
N102        N  0.24079294  0.57264017  0.03805160    -0.79400
C103        C  0.84598916  0.98856436  0.07490117     0.80500
N104        N  0.82461023  0.99031871  0.11480462    -0.77800
C105        C  0.80366198  0.01142225  0.11275246     0.83000
N106        N  0.80398348  0.03129402  0.07045367    -0.77700
C107        C  0.82537037  0.02996746  0.03050135     0.83100
N108        N  0.84620400  0.00865733  0.03280951    -0.79400
C109        C  0.84755316  0.59525800  0.06344632     0.80500
N110        N  0.82657578  0.59384967  0.10418932    -0.77800
C111        C  0.80610147  0.57225352  0.10345423     0.83000
N112        N  0.80626986  0.55228294  0.06123393    -0.77700
C113        C  0.82703077  0.55371039  0.02008799     0.83100
N114        N  0.84779683  0.57505121  0.02155621    -0.79400
O115        O  0.01295860  0.31909431  0.49163500    -0.74100
O116        O  0.07453420  0.26184700  0.49293336    -0.74100
O117        O  0.07255586  0.32119622  0.49198244    -0.74200
O118        O  0.01504146  0.26006479  0.49240606    -0.74200
O119        O  0.01474041  0.26042027  0.39889756    -0.74200
O120        O  0.07396681  0.31983584  0.39849629    -0.74200
O121        O  0.07412914  0.26042060  0.39939112    -0.74100
O122        O  0.01436960  0.31958596  0.39807473    -0.74200
Ni123      Ni  0.04379080  0.29057755  0.49558920     1.25400
Ni124      Ni  0.04434148  0.29007928  0.39536016     1.25400
C125        C  0.00366114  0.32879608  0.44461312     0.88100
C126        C  0.08403561  0.25136265  0.44645301     0.88000
C127        C  0.08281724  0.33046229  0.44514083     0.88000
C128        C  0.00528471  0.25035299  0.44570719     0.88200
C129        C  0.24010052  0.48716063  0.45321996     0.80500
N130        N  0.26050103  0.48872630  0.41149937    -0.77800
C131        C  0.28090568  0.51035494  0.41125379     0.83000
N132        N  0.28147119  0.53011793  0.45377296    -0.77700
C133        C  0.26142254  0.52846501  0.49614168     0.83100
N134        N  0.24052422  0.50720390  0.49542542    -0.79400
C135        C  0.24092606  0.09330053  0.45769754     0.80500
N136        N  0.26341262  0.09367989  0.41979992    -0.77800
C137        C  0.28489369  0.07300812  0.42141027     0.83000
N138        N  0.28444932  0.05222903  0.46208707    -0.77700
C139        C  0.26232275  0.05195598  0.50054489     0.83100
N140        N  0.24040285  0.07203687  0.49746803    -0.79400
C141        C  0.84914778  0.09301154  0.44481629     0.80500
N142        N  0.82821447  0.09338379  0.40436982    -0.77800
C143        C  0.80664656  0.07286895  0.40414933     0.83000
N144        N  0.80567380  0.05222369  0.44511997    -0.77700
C145        C  0.82648739  0.05188251  0.98579944     0.83100
N146        N  0.84825262  0.07219044  0.98541655    -0.79400
C147        C  0.84791676  0.48791592  0.43878443     0.80500
N148        N  0.82638653  0.48748635  0.39948212    -0.77800
C149        C  0.80614297  0.50925195  0.39681232     0.83000
N150        N  0.80651205  0.53114063  0.43544131    -0.77700
C151        C  0.82764328  0.53153060  0.47562522     0.83100
N152        N  0.84846166  0.51018795  0.47662007    -0.79400
C153        C  0.15450270  0.37112640  0.41828703    -0.05200
C154        C  0.14903505  0.39795799  0.44578347     0.09000
C155        C  0.12150794  0.40292818  0.47172791    -0.02500
C156        C  0.09993625  0.38075651  0.47213763    -0.00800
C157        C  0.10544216  0.35380670  0.44488116    -0.04400
C158        C  0.13265570  0.34923587  0.41725186     0.02600
C159        C  0.17241358  0.42096332  0.44780422     0.09400
C160        C  0.11527897  0.43113146  0.99711528     0.35300
C161        C  0.13853222  0.32165423  0.38909822     0.38800
C162        C  0.17664208  0.43995540  0.40191475    -0.04800
C163        C  0.19887624  0.46145264  0.40357115     0.02400
C164        C  0.21692844  0.46424643  0.45142961    -0.04400
C165        C  0.21267969  0.44512980  0.49734202    -0.00600
C166        C  0.19033611  0.42371245  0.49564810    -0.03200
C167        C  0.15763680  0.43768971  0.35345272     0.36100
C168        C  0.23202038  0.44669249  0.04543077     0.39700
C169        C  0.20262650  0.48119805  0.35645462     0.38800
C170        C  0.18560928  0.40450892  0.04324898     0.35800
C171        C  0.18272616  0.36602589  0.39129627     0.36400
C172        C  0.07179352  0.38601067  0.99939613     0.39700
N173        N  0.20568748  0.49693267  0.31888977    -0.38400
N174        N  0.14236629  0.43590695  0.31493154    -0.40000
N175        N  0.24754612  0.44778130  0.08368389    -0.35300
N176        N  0.18161593  0.38927441  0.08125695    -0.40100
N177        N  0.11029902  0.45371925  0.01696117    -0.39900
N178        N  0.04935277  0.39023736  0.02111514    -0.37500
N179        N  0.14313980  0.29963856  0.36670601    -0.38600
N180        N  0.20521543  0.36193114  0.36968817    -0.40200
C181        C  0.18484842  0.14859102  0.40184817    -0.05200
C182        C  0.17235632  0.15945186  0.45198824     0.09000
C183        C  0.18172839  0.14809949  0.50388057    -0.02500
C184        C  0.20424378  0.12685003  0.50592414    -0.00800
C185        C  0.21699660  0.11584355  0.45565025    -0.04400
C186        C  0.20662341  0.12654929  0.40350303     0.02600
C187        C  0.14955614  0.18318125  0.45027771     0.09400
C188        C  0.16816852  0.15846118  0.05546589     0.35300
C189        C  0.21746962  0.11434843  0.35111990     0.38800
C190        C  0.12090837  0.17714597  0.43065289    -0.04800
C191        C  0.09974614  0.19969591  0.42777837     0.02400
C192        C  0.10663293  0.22805035  0.44727462    -0.04400
C193        C  0.13488722  0.23384358  0.46885465    -0.00600
C194        C  0.15651074  0.21169274  0.46901635    -0.03200
C195        C  0.11299590  0.14751813  0.41489489     0.36100
C196        C  0.14175750  0.26265738  0.49075688     0.39700
C197        C  0.07057654  0.19347188  0.40633673     0.38800
C198        C  0.18595300  0.21819120  0.48869312     0.35800
C199        C  0.17533769  0.16027309  0.34833464     0.36400
C200        C  0.21470728  0.11720057  0.06026357     0.39700
N201        N  0.04736775  0.18844014  0.38908709    -0.38400
N202        N  0.10667869  0.12385837  0.40257999    -0.40000
N203        N  0.14718318  0.28555359  0.50864763    -0.37700
N204        N  0.20940257  0.22327295  0.50465779    -0.40100
N205        N  0.15741953  0.16684261  0.09651576    -0.39900
N206        N  0.22291054  0.10955620  0.10371939    -0.37500
N207        N  0.22601602  0.10463766  0.30927978    -0.38600
N208        N  0.16766063  0.16951675  0.30568924    -0.40200
C209        C  0.93580274  0.20764704  0.41221998    -0.05200
C210        C  0.93969692  0.18237436  0.44534175     0.09000
C211        C  0.96510684  0.17941985  0.47861439    -0.02500
C212        C  0.98649949  0.20171622  0.47904941    -0.00800
C213        C  0.98267542  0.22702881  0.44576881    -0.04400
C214        C  0.95722643  0.22990991  0.41233702     0.02600
C215        C  0.91675423  0.15898615  0.44564157     0.09400
C216        C  0.96931820  0.15326003  0.01208206     0.35300
C217        C  0.95249737  0.25624380  0.37954101     0.38800
C218        C  0.91459030  0.13938635  0.40013648    -0.04800
C219        C  0.89234241  0.11791208  0.39964242     0.02400
C220        C  0.87253866  0.11554738  0.44525863    -0.04400
C221        C  0.87504018  0.13488323  0.49121337    -0.00600
C222        C  0.89692513  0.15671492  0.49114144    -0.03200
C223        C  0.93547844  0.14125099  0.35406115     0.36100
C224        C  0.85453637  0.13289798  0.03789070     0.39700
C225        C  0.89024816  0.09781821  0.35273866     0.38800
C226        C  0.89887953  0.17716919  0.03752022     0.35800
C227        C  0.90954445  0.21081138  0.37839950     0.36400
C228        C  0.01287929  0.19813009  0.01244922     0.39700
N229        N  0.88856403  0.08180700  0.31531140    -0.38400
N230        N  0.95218768  0.14281418  0.31743092    -0.40000
N231        N  0.83820041  0.13131739  0.07512188    -0.37700
N232        N  0.90054808  0.19351702  0.07441577    -0.40100
N233        N  0.97265860  0.13242814  0.03887397    -0.39900
N234        N  0.03396831  0.19531749  0.03893513    -0.37500
N235        N  0.94873425  0.27727826  0.35352619    -0.38600
N236        N  0.88863274  0.21325983  0.35129943    -0.40200
C237        C  0.90337720  0.43170335  0.49364005    -0.05200
C238        C  0.91331400  0.41866276  0.44338891     0.09000
C239        C  0.90159913  0.42801439  0.39178241    -0.02500
C240        C  0.88100022  0.45109431  0.39007245    -0.00800
C241        C  0.87046954  0.46400619  0.44050775    -0.04400
C242        C  0.88149083  0.45364441  0.49244739     0.02600
C243        C  0.93659852  0.39542364  0.44447616     0.09400
C244        C  0.91079440  0.41373901  0.34017296     0.35300
C245        C  0.86969878  0.46457259  0.04511562     0.38800
C246        C  0.93012998  0.36717341  0.46524636    -0.04800
C247        C  0.95223429  0.34546884  0.46640134     0.02400
C248        C  0.98043867  0.35146240  0.44406888    -0.04400
C249        C  0.98658413  0.37933973  0.42151088    -0.00600
C250        C  0.96507683  0.40153338  0.42350918    -0.03200
C251        C  0.90058947  0.36034912  0.48453859     0.36100
C252        C  0.01514836  0.38525771  0.39648989     0.39700
C253        C  0.94568716  0.31669476  0.48898847     0.38800
C254        C  0.97236775  0.43083362  0.40461855     0.35800
C255        C  0.91588612  0.42260251  0.04673030     0.36400
C256        C  0.87161830  0.46201781  0.33588757     0.39700
N257        N  0.94043815  0.29378588  0.50709330    -0.38400
N258        N  0.87700180  0.35497107  0.49986904    -0.40000
N259        N  0.03783564  0.38983157  0.37605778    -0.37700
N260        N  0.97821318  0.45421015  0.38968657    -0.40100
N261        N  0.91814444  0.40233367  0.29911033    -0.39900
N262        N  0.86424741  0.47066807  0.29258019    -0.37500
N263        N  0.86027446  0.47310314  0.08722168    -0.38600
N264        N  0.92586867  0.41528040  0.08899370    -0.40200
C265        C  0.17513768  0.94072481  0.13646716    -0.05200
C266        C  0.16894296  0.92431243  0.08786931     0.09000
C267        C  0.18505997  0.92944733  0.03815742    -0.02500
C268        C  0.20747461  0.95075489  0.03707161    -0.00800
C269        C  0.21392319  0.96708115  0.08589887    -0.04400
C270        C  0.19739701  0.96219083  0.13542143     0.02600
C271        C  0.14592332  0.90098457  0.08917913     0.09400
C272        C  0.17893107  0.91222557  0.48845124     0.35300
C273        C  0.20264860  0.97987855  0.18490934     0.38800
C274        C  0.11781934  0.90632172  0.06637024    -0.04800
C275        C  0.09663833  0.88380380  0.06519728     0.02400
C276        C  0.10354186  0.85582000  0.08665983    -0.04400
C277        C  0.13147936  0.85065649  0.11034809    -0.00600
C278        C  0.15261458  0.87319142  0.11155423    -0.03200
C279        C  0.11081385  0.93498159  0.04392101     0.36100
C280        C  0.13885652  0.82184399  0.13165425     0.39700
C281        C  0.06747236  0.88963162  0.04320277     0.38800
C282        C  0.18150931  0.86769539  0.13493073     0.35800
C283        C  0.15872524  0.93530066  0.18772345     0.36400
C284        C  0.22453011  0.95505744  0.48614719     0.39700
N285        N  0.04418371  0.89426905  0.02589101    -0.38400
N286        N  0.10526642  0.95782306  0.02586533    -0.40000
N287        N  0.14473445  0.79882703  0.14847711    -0.37700
N288        N  0.20455139  0.86340336  0.15365339    -0.40100
N289        N  0.17394730  0.89841123  0.44897856    -0.39900
N290        N  0.23807755  0.95843919  0.44546167    -0.37500
N291        N  0.20686211  0.99410350  0.22419068    -0.38600
N292        N  0.14579406  0.93087210  0.22874723    -0.40200
C293        C  0.88328649  0.91500895  0.10607398    -0.05200
C294        C  0.91170435  0.91946810  0.08394529     0.09000
C295        C  0.91871917  0.94638160  0.05835320    -0.02500
C296        C  0.89766316  0.96911484  0.05615786    -0.00800
C297        C  0.86868095  0.96463836  0.07728744    -0.04400
C298        C  0.86161129  0.93698838  0.10131300     0.02600
C299        C  0.93421557  0.89554185  0.08668069     0.09400
C300        C  0.94774470  0.95054917  0.03392665     0.35300
C301        C  0.83180562  0.93029623  0.11938007     0.38800
C302        C  0.93262275  0.87159957  0.04948734    -0.04800
C303        C  0.95415459  0.84938674  0.05109399     0.02400
C304        C  0.97828627  0.85162148  0.08815044    -0.04400
C305        C  0.97940121  0.87525778  0.12646580    -0.00600
C306        C  0.95717454  0.89687812  0.12619936    -0.03200
C307        C  0.90891865  0.87002456  0.00907913     0.36100
C308        C  0.00386386  0.87800331  0.16493498     0.39700
C309        C  0.95078495  0.82364171  0.01602031     0.38800
C310        C  0.95783348  0.92061269  0.16658517     0.35800
C311        C  0.87642367  0.88764676  0.13414287     0.36400
C312        C  0.90649648  0.99724433  0.03339371     0.39700
N313        N  0.94798740  0.80297875  0.98851417    -0.38400
N314        N  0.89001122  0.86882058  0.97685545    -0.40000
N315        N  0.02337173  0.88023727  0.19563480    -0.37700
N316        N  0.95819170  0.93951845  0.19884447    -0.40100
N317        N  0.97087816  0.95375075  0.01435173    -0.39900
N318        N  0.91371877  0.01959937  0.01518564    -0.37500
N319        N  0.80806239  0.92480324  0.63370646    -0.38600
N320        N  0.87104255  0.86587890  0.65670656    -0.40200
C321        C  0.18785117  0.65618946  0.11793648    -0.05200
C322        C  0.17501105  0.66360395  0.06614908     0.09000
C323        C  0.18484637  0.64957402  0.01682925    -0.02500
C324        C  0.20739950  0.62829481  0.01919993    -0.00800
C325        C  0.21925570  0.61950400  0.07160631    -0.04400
C326        C  0.20915922  0.63374520  0.12105609     0.02600
C327        C  0.15096784  0.68615520  0.06406978     0.09400
C328        C  0.17166805  0.65706343  0.46343234     0.35300
C329        C  0.21973727  0.62489914  0.17580298     0.38800
C330        C  0.15667968  0.71445762  0.04285017    -0.04800
C331        C  0.13443226  0.73607326  0.04378084     0.02400
C332        C  0.10657825  0.72978841  0.06747087    -0.04400
C333        C  0.10069124  0.70132734  0.08773324    -0.00600
C334        C  0.12267322  0.67950725  0.08535481    -0.03200
C335        C  0.18568486  0.72145773  0.02102685     0.36100
C336        C  0.07175252  0.69428917  0.10996401     0.39700
C337        C  0.14050335  0.76504935  0.02177669     0.38800
C338        C  0.11619558  0.65008623  0.10464004     0.35800
C339        C  0.17924200  0.67200695  0.16820176     0.36400
C340        C  0.21901036  0.61644247  0.46711873     0.39700
N341        N  0.14535021  0.78813560  0.00410522    -0.38400
N342        N  0.20882536  0.72691021  0.00348939    -0.40000
N343        N  0.04868610  0.68865554  0.12765330    -0.37700
N344        N  0.11106811  0.62660565  0.11994852    -0.40100
N345        N  0.16121713  0.66306749  0.42082922    -0.39900
N346        N  0.22833280  0.60714584  0.42551298    -0.37500
N347        N  0.22806986  0.61792241  0.21957244    -0.38600
N348        N  0.17247009  0.68477869  0.20813525    -0.40200
C349        C  0.93202844  0.71233215  0.09870210    -0.05200
C350        C  0.93615793  0.68671856  0.06657420     0.09000
C351        C  0.96232078  0.68293032  0.03524378    -0.02500
C352        C  0.98451095  0.70443910  0.03677542    -0.00800
C353        C  0.98083450  0.72960726  0.07051456    -0.04400
C354        C  0.95441710  0.73360244  0.10117097     0.02600
C355        C  0.91301587  0.66351096  0.06615159     0.09400
C356        C  0.96639189  0.65677861  0.50159009     0.35300
C357        C  0.94981783  0.76008577  0.13372622     0.38800
C358        C  0.89368333  0.66107764  0.02035048    -0.04800
C359        C  0.87254758  0.63851162  0.01907138     0.02400
C360        C  0.86996253  0.61885593  0.06458281    -0.04400
C361        C  0.88874767  0.62194531  0.11127872    -0.00600
C362        C  0.91057226  0.64386612  0.11153624    -0.03200
C363        C  0.89535123  0.68214693  0.97497131     0.36100
C364        C  0.88605012  0.60223811  0.15869219     0.39700
C365        C  0.85290348  0.63606851  0.97157668     0.38800
C366        C  0.93087206  0.64603775  0.15810875     0.35800
C367        C  0.90444246  0.71699780  0.12829024     0.36400
C368        C  0.01141035  0.70030980  0.50464253     0.39700
N369        N  0.83726663  0.63411257  0.93363149    -0.38400
N370        N  0.89670479  0.69909968  0.93904218    -0.40000
N371        N  0.88383740  0.58667281  0.19671876    -0.37700
N372        N  0.94718171  0.64781766  0.19504794    -0.40100
N373        N  0.96954712  0.63594913  0.47461369    -0.39900
N374        N  0.03285681  0.69711088  0.47896430    -0.37500
N375        N  0.94617716  0.78122865  0.15959370    -0.38600
N376        N  0.88236282  0.72076638  0.15159790    -0.40200
C377        C  0.62163747  0.90342665  0.22039246    -0.05200
C378        C  0.64879221  0.89957301  0.19242614     0.09000
C379        C  0.65477511  0.87308383  0.16411273    -0.02500
C380        C  0.63361002  0.85054168  0.16346934    -0.00800
C381        C  0.60633868  0.85447547  0.19107490    -0.04400
C382        C  0.60029626  0.88108403  0.21912573     0.02600
C383        C  0.67135537  0.92331776  0.19319410     0.09400
C384        C  0.68307852  0.86885741  0.13689309     0.35300
C385        C  0.57177066  0.88575984  0.24540511     0.38800
C386        C  0.69185112  0.92476956  0.23727320    -0.04800
C387        C  0.71365380  0.94668932  0.23734699     0.02400
C388        C  0.71490730  0.96742936  0.19350942    -0.04400
C389        C  0.69466487  0.96566432  0.14889167    -0.00600
C390        C  0.67280394  0.94376202  0.14896092    -0.03200
C391        C  0.69067502  0.90336855  0.28211814     0.36100
C392        C  0.69625137  0.98643706  0.10300238     0.39700
C393        C  0.73573685  0.94700315  0.28103509     0.38800
C394        C  0.65177971  0.94211575  0.10352565     0.35800
C395        C  0.61593316  0.93017515  0.25137830     0.36400
C396        C  0.64031802  0.82291917  0.13622539     0.39700
N397        N  0.75354441  0.94711131  0.31553990    -0.38400
N398        N  0.68965459  0.88624007  0.31777174    -0.40000
N399        N  0.69759892  0.00289262  0.06623761    -0.37700
N400        N  0.63496018  0.94071579  0.06736587    -0.40100
N401        N  0.70575220  0.86557888  0.11547316    -0.39900
N402        N  0.64568596  0.80083619  0.11469802    -0.37500
N403        N  0.54894209  0.88944668  0.26599112    -0.38600
N404        N  0.61145431  0.95137491  0.27657398    -0.40200
C405        C  0.40528148  0.65156355  0.15695987    -0.05200
C406        C  0.41149771  0.66633131  0.20748361     0.09000
C407        C  0.39580797  0.65902977  0.25670064    -0.02500
C408        C  0.37447498  0.63660724  0.25574128    -0.00800
C409        C  0.36846828  0.62142988  0.20527472    -0.04400
C410        C  0.38393874  0.62919330  0.15579255     0.02600
C411        C  0.43516204  0.68909737  0.20877752     0.09400
C412        C  0.40147477  0.67485087  0.30828175     0.35300
C413        C  0.37889629  0.61343857  0.10390725     0.38800
C414        C  0.43062983  0.71656176  0.18306736    -0.04800
C415        C  0.45370550  0.73710009  0.18039018     0.02400
C416        C  0.48125465  0.73054872  0.20456834    -0.04400
C417        C  0.48558053  0.70342268  0.23159920    -0.00600
C418        C  0.46267176  0.68265380  0.23327892    -0.03200
C419        C  0.40221165  0.72357658  0.15903773     0.36100
C420        C  0.51402024  0.69639678  0.25560375     0.39700
C421        C  0.44896092  0.76518375  0.15339851     0.38800
C422        C  0.46760664  0.65433825  0.25908207     0.35800
C423        C  0.42111533  0.65933551  0.10609315     0.36400
C424        C  0.35826951  0.62971375  0.30661609     0.39700
N425        N  0.44526904  0.78753866  0.13175326    -0.38400
N426        N  0.37958926  0.72911271  0.13965671    -0.40000
N427        N  0.53674689  0.69082567  0.27452889    -0.37700
N428        N  0.47150708  0.63177594  0.27976693    -0.40100
N429        N  0.40602011  0.68743868  0.34942352    -0.39900
N430        N  0.34541789  0.62417713  0.34724663    -0.37500
N431        N  0.37500715  0.60094355  0.06241174    -0.38600
N432        N  0.43362533  0.66584771  0.06562297    -0.40200
C433        C  0.67941446  0.64390920  0.23354695    -0.05200
C434        C  0.67118749  0.65730438  0.18270053     0.09000
C435        C  0.68389650  0.64746468  0.13197473    -0.02500
C436        C  0.70456383  0.62433671  0.13205234    -0.00800
C437        C  0.71433257  0.61203715  0.18337767    -0.04400
C438        C  0.70130848  0.62197914  0.23423233     0.02600
C439        C  0.64918754  0.68188473  0.18309995     0.09400
C440        C  0.67596435  0.66145311  0.07957102     0.35300
C441        C  0.71082051  0.61054207  0.28793410     0.38800
C442        C  0.65664767  0.70921594  0.20693067    -0.04800
C443        C  0.63528798  0.73154205  0.21187451     0.02400
C444        C  0.60678950  0.72734559  0.18998671    -0.04400
C445        C  0.59963898  0.70043609  0.16418032    -0.00600
C446        C  0.62054587  0.67759058  0.16182488    -0.03200
C447        C  0.68651802  0.71445216  0.22563679     0.36100
C448        C  0.57042670  0.69592691  0.14140635     0.39700
C449        C  0.64280913  0.75901238  0.23871778     0.38800
C450        C  0.61245348  0.64950066  0.13813349     0.35800
C451        C  0.66532361  0.65289873  0.28556496     0.36400
C452        C  0.71472654  0.61255028  0.07883138     0.39700
N453        N  0.64876452  0.78085152  0.26043887    -0.38400
N454        N  0.71039841  0.71855343  0.24029783    -0.40000
N455        N  0.54715657  0.69238415  0.12312646    -0.37700
N456        N  0.60605068  0.62713371  0.11900422    -0.40100
N457        N  0.66964571  0.67259040  0.03777316    -0.39900
N458        N  0.72260133  0.60304604  0.03635323    -0.37500
N459        N  0.71826274  0.60148046  0.33089058    -0.38600
N460        N  0.65410939  0.66013093  0.32696023    -0.40200
C461        C  0.38143964  0.91038191  0.20164986    -0.05200
C462        C  0.41138201  0.91810716  0.20605124     0.09000
C463        C  0.41936189  0.94773965  0.21218823    -0.02500
C464        C  0.39752663  0.96965004  0.21369397    -0.00800
C465        C  0.36742297  0.96200703  0.20964821    -0.04400
C466        C  0.35947940  0.93221557  0.20384808     0.02600
C467        C  0.43473969  0.89504255  0.20422505     0.09400
C468        C  0.45019108  0.95564517  0.21661929     0.35300
C469        C  0.32869403  0.92384755  0.20186946     0.38800
C470        C  0.45016383  0.88955190  0.15408136    -0.04800
C471        C  0.47328372  0.86890405  0.15270795     0.02400
C472        C  0.48107094  0.85297727  0.20192481    -0.04400
C473        C  0.46489264  0.85854099  0.25220922    -0.00600
C474        C  0.44194825  0.87941272  0.25302842    -0.03200
C475        C  0.44199062  0.90525308  0.10355168     0.36100
C476        C  0.47113498  0.84277721  0.30359366     0.39700
C477        C  0.48905328  0.86485020  0.10019390     0.38800
C478        C  0.42542845  0.88483020  0.30427848     0.35800
C479        C  0.37333434  0.87991004  0.19462792     0.36400
C480        C  0.40622826  0.00014369  0.21748175     0.39700
N481        N  0.50139110  0.86173102  0.05804394    -0.38400
N482        N  0.43537786  0.91774405  0.06335889    -0.40000
N483        N  0.47597442  0.83043585  0.34488596    -0.37700
N484        N  0.41208163  0.88912022  0.34489468    -0.40100
N485        N  0.47478625  0.96189726  0.22003727    -0.39900
N486        N  0.41311709  0.02447124  0.22048240    -0.37500
N487        N  0.30414469  0.91718042  0.20040474    -0.38600
N488        N  0.36694229  0.85558195  0.18895972    -0.40200
C489        C  0.42935633  0.36970486  0.31371187    -0.05200
C490        C  0.43555925  0.39751929  0.33654826     0.09000
C491        C  0.46288143  0.40254652  0.36277879    -0.02500
C492        C  0.48398226  0.37998724  0.36571910    -0.00800
C493        C  0.47844799  0.35271521  0.33999376    -0.04400
C494        C  0.45087319  0.34744976  0.31485051     0.02600
C495        C  0.41299564  0.42137087  0.33448687     0.09400
C496        C  0.46936442  0.43112283  0.38619808     0.35300
C497        C  0.44420775  0.31872322  0.29225262     0.38800
C498        C  0.39746515  0.42919784  0.38342095    -0.04800
C499        C  0.37708045  0.45246658  0.38254995     0.02400
C500        C  0.37050978  0.46715273  0.33141184    -0.04400
C501        C  0.38592477  0.45860387  0.28194193    -0.00600
C502        C  0.40745611  0.43631401  0.28398683    -0.03200
C503        C  0.40235844  0.41293816  0.43485505     0.36100
C504        C  0.37927713  0.47176992  0.22811958     0.39700
C505        C  0.36372702  0.46144408  0.43527263     0.38800
C506        C  0.42400414  0.42859822  0.23388377     0.35800
C507        C  0.40064896  0.36393941  0.28977593     0.36400
C508        C  0.51150921  0.38498380  0.39477297     0.39700
N509        N  0.35319437  0.46839062  0.47750943    -0.38400
N510        N  0.40625594  0.39986785  0.47568329    -0.40000
N511        N  0.37408595  0.48213321  0.18501875    -0.37700
N512        N  0.43721099  0.42241234  0.19400059    -0.40100
N513        N  0.47445800  0.45392436  0.40484891    -0.39900
N514        N  0.53334357  0.38888556  0.41836473    -0.37500
N515        N  0.43883309  0.29576798  0.27458849    -0.38600
N516        N  0.37771699  0.35938835  0.27081524    -0.40200
C517        C  0.68006662  0.14915901  0.27845367    -0.05200
C518        C  0.67474096  0.16501484  0.32808067     0.09000
C519        C  0.69142458  0.15895073  0.37622098    -0.02500
C520        C  0.71259241  0.13627104  0.37570612    -0.00800
C521        C  0.71813287  0.11986151  0.32583623    -0.04400
C522        C  0.70177630  0.12704125  0.27685877     0.02600
C523        C  0.65121996  0.18801126  0.32953035     0.09400
C524        C  0.68692337  0.17647042  0.42635282     0.35300
C525        C  0.70741061  0.11251342  0.22373470     0.38800
C526        C  0.62381114  0.18205682  0.35525546    -0.04800
C527        C  0.60121568  0.20322226  0.35452085     0.02400
C528        C  0.60583920  0.23042936  0.32781837    -0.04400
C529        C  0.63317897  0.23631262  0.30171051    -0.00600
C530        C  0.65600493  0.21539419  0.30368161    -0.03200
C531        C  0.61894358  0.15418018  0.38282499     0.36100
C532        C  0.63808535  0.26409574  0.27378608     0.39700
C533        C  0.57280282  0.19662647  0.37961899     0.38800
C534        C  0.68474991  0.22227465  0.28049447     0.35800
C535        C  0.66315867  0.15586149  0.22855462     0.36400
C536        C  0.72792331  0.12984375  0.42750073     0.39700
N537        N  0.55008939  0.19143226  0.39937988    -0.38400
N538        N  0.61511309  0.13205068  0.40526025    -0.40000
N539        N  0.64204753  0.28621638  0.25138003    -0.37700
N540        N  0.70776947  0.22779476  0.26245697    -0.40100
N541        N  0.68336794  0.19056382  0.46611893    -0.39900
N542        N  0.74008004  0.12499851  0.46899717    -0.37500
N543        N  0.71167615  0.10102418  0.18121255    -0.38600
N544        N  0.64978506  0.16135106  0.18877369    -0.40200
C545        C  0.65510973  0.36962779  0.34816338    -0.05200
C546        C  0.64870371  0.39777506  0.32706403     0.09000
C547        C  0.61990694  0.40432651  0.30896465    -0.02500
C548        C  0.59791835  0.38254391  0.31002108    -0.00800
C549        C  0.60421083  0.35451453  0.33189264    -0.04400
C550        C  0.63276309  0.34828704  0.35188220     0.02600
C551        C  0.67238160  0.42052829  0.32394572     0.09400
C552        C  0.61284778  0.43365271  0.29007061     0.35300
C553        C  0.63938618  0.31972216  0.37519107     0.38800
C554        C  0.68630951  0.42679005  0.27235928    -0.04800
C555        C  0.70891274  0.44793049  0.26950651     0.02400
C556        C  0.71785237  0.46302702  0.31845429    -0.04400
C557        C  0.70400644  0.45635659  0.37030553    -0.00600
C558        C  0.68120221  0.43544247  0.37278492    -0.03200
C559        C  0.67747220  0.41119012  0.22221404     0.36100
C560        C  0.71268648  0.47131927  0.42126721     0.39700
C561        C  0.72369832  0.45317904  0.21638670     0.38800
C562        C  0.66639715  0.42950083  0.42559443     0.35800
C563        C  0.68487612  0.36254225  0.36523397     0.36400
C564        C  0.56866733  0.38912849  0.28938257     0.39700
N565        N  0.73548168  0.45729068  0.17400538    -0.38400
N566        N  0.67033229  0.39876353  0.18227288    -0.40000
N567        N  0.71974074  0.48304695  0.46204146    -0.37700
N568        N  0.65451668  0.42477476  0.46763686    -0.40100
N569        N  0.60718466  0.45711452  0.27535782    -0.39900
N570        N  0.54537180  0.39432692  0.27267138    -0.37500
N571        N  0.64476566  0.29701346  0.39404765    -0.38600
N572        N  0.70866680  0.35691822  0.37861446    -0.40200
C573        C  0.41693579  0.13624969  0.37475931    -0.05200
C574        C  0.41650591  0.15811399  0.33296658     0.09000
C575        C  0.39492463  0.15722723  0.29069419    -0.02500
C576        C  0.37380709  0.13464205  0.29025788    -0.00800
C577        C  0.37370261  0.11326407  0.33295649    -0.04400
C578        C  0.39555502  0.11386980  0.37477941     0.02600
C579        C  0.43885823  0.18212806  0.33335122     0.09400
C580        C  0.39410164  0.18000733  0.24843284     0.35300
C581        C  0.39648423  0.09098401  0.41685691     0.38800
C582        C  0.46451547  0.17980693  0.30011294    -0.04800
C583        C  0.48567586  0.20236192  0.30059018     0.02400
C584        C  0.48124271  0.22751471  0.33421807    -0.04400
C585        C  0.45543428  0.22983118  0.36736869    -0.00600
C586        C  0.43423465  0.20728430  0.36656341    -0.03200
C587        C  0.46900460  0.15419151  0.26514516     0.36100
C588        C  0.45020711  0.25578765  0.40105966     0.39700
C589        C  0.51251655  0.19916885  0.26786934     0.38800
C590        C  0.40726277  0.21017517  0.39891627     0.35800
C591        C  0.43930473  0.13694930  0.41787777     0.36400
C592        C  0.35181479  0.13368451  0.24642729     0.39700
N593        N  0.53397694  0.19666023  0.24197310    -0.38400
N594        N  0.47249662  0.13382158  0.23705286    -0.40000
N595        N  0.44605284  0.27648226  0.42795199    -0.37700
N596        N  0.38565067  0.21248385  0.42440864    -0.40100
N597        N  0.39340775  0.19831077  0.21496194    -0.39900
N598        N  0.33431906  0.13273977  0.21140187    -0.37500
N599        N  0.39728591  0.07258374  0.45014128    -0.38600
N600        N  0.45712597  0.13757194  0.45233666    -0.40200
C601        C  0.35010515  0.09097416  0.83482716     0.80500
N602        N  0.34833287  0.07030680  0.79405187    -0.77800
C603        C  0.32594163  0.05066686  0.79440435     0.83000
N604        N  0.30546998  0.05147390  0.83605297    -0.77700
C605        C  0.30727871  0.07199240  0.87713489     0.83100
N606        N  0.32948182  0.09184105  0.87626048    -0.79400
O607        O  0.51314898  0.26128309  0.88080110    -0.74100
O608        O  0.57264308  0.32080751  0.87964405    -0.74100
O609        O  0.51290272  0.32057810  0.88357138    -0.74200
O610        O  0.57267276  0.26161912  0.87712009    -0.74200
O611        O  0.57241562  0.26356810  0.78364081    -0.74200
O612        O  0.51061827  0.32063635  0.79013576    -0.74200
O613        O  0.57024658  0.32278983  0.78629749    -0.74100
O614        O  0.51281506  0.26150437  0.78731517    -0.74200
Ni615      Ni  0.54287666  0.29105589  0.88362371     1.25400
Ni616      Ni  0.54146326  0.29218153  0.78350106     1.25400
C617        C  0.50346095  0.25135655  0.83416954     0.88100
C618        C  0.58116584  0.33158358  0.83272324     0.88000
C619        C  0.50176418  0.33009634  0.83788474     0.88000
C620        C  0.58249102  0.25304588  0.82946252     0.88200
C621        C  0.74086496  0.09571964  0.82465779     0.80500
N622        N  0.76347811  0.09547192  0.86180452    -0.77800
C623        C  0.78381554  0.07369586  0.86118417     0.83000
N624        N  0.78245922  0.05245284  0.82151679    -0.77700
C625        C  0.76032523  0.05266544  0.78352943     0.83100
N626        N  0.73939925  0.07385733  0.78600613    -0.79400
C627        C  0.34713320  0.49047339  0.82974945     0.80500
N628        N  0.34772087  0.51217735  0.79067777    -0.77800
C629        C  0.32596912  0.53259834  0.78875788     0.83000
N630        N  0.30400918  0.53217515  0.82773162    -0.77700
C631        C  0.30357848  0.51090663  0.86750228     0.83100
N632        N  0.32463966  0.48994935  0.86740364    -0.79400
C633        C  0.74129396  0.48587739  0.81539149     0.80500
N634        N  0.76277806  0.48694116  0.85477086    -0.77800
C635        C  0.78349105  0.50830323  0.85335338     0.83000
N636        N  0.78341202  0.52824010  0.81105923    -0.77700
C637        C  0.76232018  0.52703255  0.77089310     0.83100
N638        N  0.74105326  0.50621883  0.77377706    -0.79400
C639        C  0.34446238  0.98519285  0.71078084     0.80500
N640        N  0.34505883  0.00634267  0.75076166    -0.77800
C641        C  0.32465069  0.02801008  0.75113995     0.83000
N642        N  0.30368969  0.02887652  0.71070781    -0.77700
C643        C  0.30309410  0.00784822  0.67036951     0.83100
N644        N  0.32333245  0.98599456  0.67073785    -0.79400
O645        O  0.57650798  0.76138162  0.74059548    -0.74100
O646        O  0.51666112  0.82081444  0.74592738    -0.74100
O647        O  0.51685439  0.76153489  0.74714659    -0.74200
O648        O  0.57598761  0.82080396  0.74039596    -0.74200
O649        O  0.57402454  0.82032009  0.64695464    -0.74200
O650        O  0.51405429  0.76153731  0.65378401    -0.74200
O651        O  0.51433235  0.82033793  0.65317903    -0.74100
O652        O  0.57354189  0.76086310  0.64726294    -0.74200
Ni653      Ni  0.54664474  0.79111142  0.74685524     1.25400
Ni654      Ni  0.54399502  0.79076167  0.64698283     1.25400
C655        C  0.58459105  0.75115138  0.69286972     0.88100
C656        C  0.50527805  0.83034226  0.70034669     0.88000
C657        C  0.50538624  0.75217517  0.70166467     0.88000
C658        C  0.58446826  0.83054322  0.69273859     0.88200
C659        C  0.73768660  0.99059642  0.69416185     0.80500
N660        N  0.73814170  0.01064877  0.73625214    -0.77800
C661        C  0.75979158  0.03107705  0.73817895     0.83000
N662        N  0.78090448  0.03161076  0.69761372    -0.77700
C663        C  0.78030518  0.01181685  0.65515733     0.83100
N664        N  0.75887842  0.99116840  0.65383405    -0.79400
C665        C  0.34623684  0.59746415  0.70430166     0.80500
N666        N  0.34646626  0.57635020  0.74444939    -0.77800
C667        C  0.32603214  0.55471233  0.74421092     0.83000
N668        N  0.30566071  0.55368457  0.70268064    -0.77700
C669        C  0.30551300  0.57448996  0.66194027     0.83100
N670        N  0.32550266  0.59654668  0.66340856    -0.79400
C671        C  0.73852705  0.58963888  0.68392533     0.80500
N672        N  0.73895954  0.56815309  0.72333976    -0.77800
C673        C  0.76164887  0.54887459  0.72587700     0.83000
N674        N  0.78373088  0.55027398  0.68728573    -0.77700
C675        C  0.78316750  0.57121870  0.64683454     0.83100
N676        N  0.76093419  0.59107496  0.64598068    -0.79400
O677        O  0.07293609  0.81953847  0.62894790    -0.74100
O678        O  0.01392726  0.76002514  0.62125690    -0.74100
O679        O  0.07354504  0.76022838  0.61970841    -0.74200
O680        O  0.01322146  0.81890033  0.63027681    -0.74200
O681        O  0.01239667  0.82193292  0.53704018    -0.74200
O682        O  0.07406385  0.76491734  0.52660250    -0.74200
O683        O  0.01440525  0.76309320  0.52790070    -0.74100
O684        O  0.07178574  0.82412142  0.53583284    -0.74200
Ni685      Ni  0.04349667  0.78953331  0.62840196     1.25400
Ni686      Ni  0.04320472  0.79363913  0.52853699     1.25400
C687        C  0.08167725  0.83192560  0.58370233     0.88100
C688        C  0.00433513  0.75194104  0.57332845     0.88000
C689        C  0.08364218  0.75288209  0.57143254     0.88000
C690        C  0.00255097  0.82975004  0.58519652     0.88200
C691        C  0.23807394  0.98895443  0.58551412     0.80500
N692        N  0.25902880  0.98836306  0.62594223    -0.77800
C693        C  0.28082755  0.00862646  0.62630931     0.83000
N694        N  0.28216245  0.02918379  0.58524412    -0.77700
C695        C  0.26143466  0.02965179  0.54438170     0.83100
N696        N  0.23926386  0.00980182  0.54504429    -0.79400
C697        C  0.24173536  0.59543882  0.57462869     0.80500
N698        N  0.26332666  0.59600018  0.61391983    -0.77800
C699        C  0.28318825  0.57386178  0.61764659     0.83000
N700        N  0.28229700  0.55141596  0.58021098    -0.77700
C701        C  0.26114394  0.55091909  0.54007654     0.83100
N702        N  0.24078890  0.57263687  0.53805172    -0.79400
C703        C  0.84598730  0.98856277  0.57489830     0.80500
N704        N  0.82460926  0.99031758  0.61480340    -0.77800
C705        C  0.80366126  0.01142140  0.61275270     0.83000
N706        N  0.80398222  0.03129313  0.57045370    -0.77700
C707        C  0.82536817  0.02996597  0.53049946     0.83100
N708        N  0.84620150  0.00865553  0.53280627    -0.79400
C709        C  0.84755346  0.59525686  0.56344236     0.80500
N710        N  0.82657692  0.59384824  0.60418691    -0.77800
C711        C  0.80610258  0.57225209  0.60345272     0.83000
N712        N  0.80626995  0.55228195  0.56123188    -0.77700
C713        C  0.82702996  0.55370964  0.52008431     0.83100
N714        N  0.84779619  0.57505041  0.52155166    -0.79400
O715        O  0.01296161  0.31909592  0.99163722    -0.74100
O716        O  0.07453703  0.26184869  0.99293672    -0.74100
O717        O  0.07255878  0.32119805  0.99198477    -0.74200
O718        O  0.01504449  0.26006642  0.99240913    -0.74200
O719        O  0.01474349  0.26042169  0.89890066    -0.74200
O720        O  0.07396994  0.31983730  0.89849870    -0.74200
O721        O  0.07413209  0.26042196  0.89939451    -0.74100
O722        O  0.01437271  0.31958737  0.89807697    -0.74200
Ni723      Ni  0.04379376  0.29057927  0.99559190     1.25400
Ni724      Ni  0.04434456  0.29008069  0.89536298     1.25400
C725        C  0.00366423  0.32879758  0.94461525     0.88100
C726        C  0.08403828  0.25136401  0.94645656     0.88000
C727        C  0.08282024  0.33046402  0.94514310     0.88000
C728        C  0.00528784  0.25035444  0.94571039     0.88200
C729        C  0.24010333  0.48716336  0.95322120     0.80500
N730        N  0.26050370  0.48872902  0.91150023    -0.77800
C731        C  0.28090849  0.51035750  0.91125439     0.83000
N732        N  0.28147431  0.53012048  0.95377359    -0.77700
C733        C  0.26142588  0.52846767  0.99614270     0.83100
N734        N  0.24052744  0.50720665  0.99542678    -0.79400
C735        C  0.24092642  0.09330000  0.95769435     0.80500
N736        N  0.26341318  0.09368042  0.91979737    -0.77800
C737        C  0.28489473  0.07300910  0.92140725     0.83000
N738        N  0.28445047  0.05222936  0.96208301    -0.77700
C739        C  0.26232361  0.05195522  0.00054008     0.83100
N740        N  0.24040330  0.07203569  0.99746365    -0.79400
C741        C  0.84915153  0.09301314  0.94482039     0.80500
N742        N  0.82821812  0.09338657  0.90437429    -0.77800
C743        C  0.80664948  0.07287253  0.90415347     0.83000
N744        N  0.80567630  0.05222675  0.94512309    -0.77700
C745        C  0.82648461  0.05188072  0.48579688     0.83100
N746        N  0.84824924  0.07218929  0.48541342    -0.79400
C747        C  0.84792042  0.48791792  0.93878672     0.80500
N748        N  0.82639036  0.48748786  0.89948407    -0.77800
C749        C  0.80614598  0.50925267  0.89681476     0.83000
N750        N  0.80651386  0.53114094  0.93544461    -0.77700
C751        C  0.82764495  0.53153141  0.97562875     0.83100
N752        N  0.84846429  0.51018972  0.97662300    -0.79400
C753        C  0.15450546  0.37112889  0.91828918    -0.05200
C754        C  0.14903767  0.39796041  0.94578593     0.09000
C755        C  0.12151049  0.40293022  0.97173044    -0.02500
C756        C  0.09993895  0.38075842  0.97213993    -0.00800
C757        C  0.10544502  0.35380868  0.94488330    -0.04400
C758        C  0.13265861  0.34923817  0.91725397     0.02600
C759        C  0.17241606  0.42096595  0.94780659     0.09400
C760        C  0.11527670  0.43112954  0.49711239     0.35300
C761        C  0.13853531  0.32165660  0.88909996     0.38800
C762        C  0.17664448  0.43995805  0.90191708    -0.04800
C763        C  0.19887876  0.46145517  0.90357301     0.02400
C764        C  0.21693117  0.46424913  0.95143121    -0.04400
C765        C  0.21268257  0.44513241  0.99734361    -0.00600
C766        C  0.19033894  0.42371508  0.99565004    -0.03200
C767        C  0.15763882  0.43769248  0.85345536     0.36100
C768        C  0.23201710  0.44669004  0.54542985     0.39700
C769        C  0.20262918  0.48120019  0.85645592     0.38800
C770        C  0.18560621  0.40450637  0.54324695     0.35800
C771        C  0.18272884  0.36602878  0.89129802     0.36400
C772        C  0.07179088  0.38600908  0.49939365     0.39700
N773        N  0.20569035  0.49693437  0.81889057    -0.38400
N774        N  0.14236803  0.43590989  0.81493481    -0.40000
N775        N  0.24754241  0.44777900  0.58368350    -0.35300
N776        N  0.18161265  0.38927187  0.58125500    -0.40100
N777        N  0.11029708  0.45371751  0.51695816    -0.39900
N778        N  0.04935015  0.39023613  0.52111264    -0.37500
N779        N  0.14314291  0.29964108  0.86670741    -0.38600
N780        N  0.20521809  0.36193432  0.86968948    -0.40200
C781        C  0.18484825  0.14859133  0.90185037    -0.05200
C782        C  0.17235704  0.15945166  0.95199166     0.09000
C783        C  0.18172998  0.14809878  0.00388297    -0.02500
C784        C  0.20424532  0.12684924  0.00592435    -0.00800
C785        C  0.21699710  0.11584315  0.95564920    -0.04400
C786        C  0.20662321  0.12654957  0.90350304     0.02600
C787        C  0.14955707  0.18318124  0.95028321     0.09400
C788        C  0.16816584  0.15846222  0.55546221     0.35300
C789        C  0.21746877  0.11434941  0.85111878     0.38800
C790        C  0.12090913  0.17714638  0.93065885    -0.04800
C791        C  0.09974743  0.19969676  0.92778379     0.02400
C792        C  0.10663500  0.22805125  0.94727880    -0.04400
C793        C  0.13488934  0.23384398  0.96885897    -0.00600
C794        C  0.15651227  0.21169261  0.96902179    -0.03200
C795        C  0.11299599  0.14751860  0.91490211     0.36100
C796        C  0.14176034  0.26265796  0.99075974     0.39700
C797        C  0.07057768  0.19347313  0.90634227     0.38800
C798        C  0.18595439  0.21819037  0.98869988     0.35800
C799        C  0.17533659  0.16027404  0.84833779     0.36400
C800        C  0.21470441  0.11720158  0.56026450     0.39700
N801        N  0.04736888  0.18844159  0.88909260    -0.38400
N802        N  0.10667824  0.12385874  0.90258840    -0.40000
N803        N  0.14718647  0.28555434  0.00864891    -0.37700
N804        N  0.20940385  0.22327154  0.00466604    -0.40100
N805        N  0.15741603  0.16684398  0.59651111    -0.39900
N806        N  0.22290642  0.10955740  0.60372118    -0.37500
N807        N  0.22601454  0.10463928  0.80927775    -0.38600
N808        N  0.16765869  0.16951818  0.80569344    -0.40200
C809        C  0.93580631  0.20764778  0.91222340    -0.05200
C810        C  0.93970071  0.18237533  0.94534566     0.09000
C811        C  0.96511063  0.17942107  0.97861824    -0.02500
C812        C  0.98650304  0.20171763  0.97905317    -0.00800
C813        C  0.98267874  0.22703008  0.94577222    -0.04400
C814        C  0.95722982  0.22991082  0.91234019     0.02600
C815        C  0.91675826  0.15898700  0.94564596     0.09400
C816        C  0.96931413  0.15325880  0.51207829     0.35300
C817        C  0.95250069  0.25624438  0.87954349     0.38800
C818        C  0.91459486  0.13938669  0.90014157    -0.04800
C819        C  0.89234700  0.11791242  0.89964765     0.02400
C820        C  0.87254289  0.11554831  0.94526328    -0.04400
C821        C  0.87504409  0.13488443  0.99121767    -0.00600
C822        C  0.89692900  0.15671610  0.99114547    -0.03200
C823        C  0.93548354  0.14125065  0.85406730     0.36100
C824        C  0.85453266  0.13289652  0.53788688     0.39700
C825        C  0.89025311  0.09781808  0.85274459     0.38800
C826        C  0.89887600  0.17716755  0.53751663     0.35800
C827        C  0.90954815  0.21081170  0.87840251     0.36400
C828        C  0.01287579  0.19812839  0.51244538     0.39700
N829        N  0.88856914  0.08180647  0.81531781    -0.38400
N830        N  0.95219339  0.14281321  0.81743774    -0.40000
N831        N  0.83819692  0.13131575  0.57511822    -0.37700
N832        N  0.90054482  0.19351513  0.57441282    -0.40100
N833        N  0.97265442  0.13242693  0.53887028    -0.39900
N834        N  0.03396483  0.19531563  0.53893105    -0.37500
N835        N  0.94873755  0.27727865  0.85352790    -0.38600
N836        N  0.88863651  0.21325992  0.85130202    -0.40200
C837        C  0.90338126  0.43170590  0.99364317    -0.05200
C838        C  0.91331840  0.41866542  0.94339218     0.09000
C839        C  0.90160392  0.42801724  0.89178545    -0.02500
C840        C  0.88100485  0.45109699  0.89007519    -0.00800
C841        C  0.87047376  0.46400872  0.94051037    -0.04400
C842        C  0.88149495  0.45364698  0.99245013     0.02600
C843        C  0.93660264  0.39542604  0.94447965     0.09400
C844        C  0.91079976  0.41374215  0.84017605     0.35300
C845        C  0.86969482  0.46456990  0.54511288     0.38800
C846        C  0.93013362  0.36717576  0.96524898    -0.04800
C847        C  0.95223753  0.34547076  0.96640317     0.02400
C848        C  0.98044200  0.35146408  0.94407090    -0.04400
C849        C  0.98658794  0.37934146  0.92151381    -0.00600
C850        C  0.96508110  0.40153552  0.92351303    -0.03200
C851        C  0.90059309  0.36035194  0.98454196     0.36100
C852        C  0.01515216  0.38525907  0.89649246     0.39700
C853        C  0.94568992  0.31669663  0.98898943     0.38800
C854        C  0.97237266  0.43083589  0.90462411     0.35800
C855        C  0.91588250  0.42260023  0.54672675     0.36400
C856        C  0.87162295  0.46202033  0.83589017     0.39700
N857        N  0.94044037  0.29378772  0.00709366    -0.38400
N858        N  0.87700551  0.35497427  0.99987327    -0.40000
N859        N  0.03783940  0.38983257  0.87605995    -0.37700
N860        N  0.97821865  0.45421260  0.88969375    -0.40100
N861        N  0.91815038  0.40233704  0.79911360    -0.39900
N862        N  0.86425203  0.47067040  0.79258267    -0.37500
N863        N  0.86027053  0.47310041  0.58721923    -0.38600
N864        N  0.92586560  0.41527830  0.58899001    -0.40200
C865        C  0.17513619  0.94072580  0.63646953    -0.05200
C866        C  0.16894208  0.92431298  0.58787187     0.09000
C867        C  0.18505958  0.92944754  0.53816040    -0.02500
C868        C  0.20747405  0.95075525  0.53707463    -0.00800
C869        C  0.21392208  0.96708180  0.58590182    -0.04400
C870        C  0.19739550  0.96219178  0.63542394     0.02600
C871        C  0.14592250  0.90098512  0.58918139     0.09400
C872        C  0.17893086  0.91222571  0.98844801     0.35300
C873        C  0.20264674  0.97987992  0.68491179     0.38800
C874        C  0.11781873  0.90632214  0.56637146    -0.04800
C875        C  0.09663786  0.88380413  0.56519778     0.02400
C876        C  0.10354134  0.85582031  0.58666028    -0.04400
C877        C  0.13147865  0.85065693  0.61034954    -0.00600
C878        C  0.15261364  0.87319202  0.61155682    -0.03200
C879        C  0.11081337  0.93498195  0.54392188     0.36100
C880        C  0.13885590  0.82184436  0.63165547     0.39700
C881        C  0.06747197  0.88963188  0.54320245     0.38800
C882        C  0.18150806  0.86769627  0.63493493     0.35800
C883        C  0.15872311  0.93530211  0.68772523     0.36400
C884        C  0.22453041  0.95505703  0.98614384     0.39700
N885        N  0.04418348  0.89426918  0.52589020    -0.38400
N886        N  0.10526602  0.95782338  0.52586584    -0.40000
N887        N  0.14473399  0.79882741  0.64847799    -0.37700
N888        N  0.20454988  0.86340453  0.65365893    -0.40100
N889        N  0.17394649  0.89841159  0.94897533    -0.39900
N890        N  0.23807765  0.95843850  0.94545815    -0.37500
N891        N  0.20685995  0.99410516  0.72419255    -0.38600
N892        N  0.14579141  0.93087394  0.72874860    -0.40200
C893        C  0.88328556  0.91500803  0.60607189    -0.05200
C894        C  0.91170346  0.91946758  0.58394361     0.09000
C895        C  0.91871786  0.94638100  0.55835075    -0.02500
C896        C  0.89766143  0.96911380  0.55615454    -0.00800
C897        C  0.86867929  0.96463702  0.57728419    -0.04400
C898        C  0.86160999  0.93698704  0.60131021     0.02600
C899        C  0.93421494  0.89554159  0.58667910     0.09400
C900        C  0.94774341  0.95054889  0.53392433     0.35300
C901        C  0.83180436  0.93029461  0.61937717     0.38800
C902        C  0.93262249  0.87159948  0.54948531    -0.04800
C903        C  0.95415443  0.84938677  0.55109201     0.02400
C904        C  0.97828588  0.85162150  0.58814903    -0.04400
C905        C  0.97940052  0.87525768  0.62646477    -0.00600
C906        C  0.95717371  0.89687791  0.62619824    -0.03200
C907        C  0.90891850  0.87002444  0.50907670     0.36100
C908        C  0.00386288  0.87800313  0.66493454     0.39700
C909        C  0.95078503  0.82364182  0.51601797     0.38800
C910        C  0.95783231  0.92061235  0.66658433     0.35800
C911        C  0.87642305  0.88764578  0.63414086     0.36400
C912        C  0.90649422  0.99724325  0.53338883     0.39700
N913        N  0.94798761  0.80297891  0.48851163    -0.38400
N914        N  0.89001120  0.86882046  0.47685287    -0.40000
N915        N  0.02337061  0.88023696  0.69563486    -0.37700
N916        N  0.95819021  0.93951803  0.69884395    -0.40100
N917        N  0.97087687  0.95375068  0.51434967    -0.39900
N918        N  0.91371599  0.01959801  0.51517942    -0.37500
N919        N  0.80806362  0.92480508  0.13370937    -0.38600
N920        N  0.87104297  0.86587992  0.15670856    -0.40200
C921        C  0.18784818  0.65618711  0.61793629    -0.05200
C922        C  0.17500918  0.66360261  0.56614839     0.09000
C923        C  0.18484468  0.64957262  0.51682870    -0.02500
C924        C  0.20739684  0.62829248  0.51920001    -0.00800
C925        C  0.21925179  0.61950071  0.57160684    -0.04400
C926        C  0.20915491  0.63374170  0.62105655     0.02600
C927        C  0.15096648  0.68615437  0.56406865     0.09400
C928        C  0.17166848  0.65706375  0.96343360     0.35300
C929        C  0.21973090  0.62489384  0.67580387     0.38800
C930        C  0.15667897  0.71445678  0.54284963    -0.04800
C931        C  0.13443190  0.73607279  0.54378015     0.02400
C932        C  0.10657766  0.72978830  0.56746953    -0.04400
C933        C  0.10068997  0.70132723  0.58773116    -0.00600
C934        C  0.12267158  0.67950681  0.58535283    -0.03200
C935        C  0.18568445  0.72145647  0.52102705     0.36100
C936        C  0.07175099  0.69428941  0.60996118     0.39700
C937        C  0.14050361  0.76504895  0.52177679     0.38800
C938        C  0.11619330  0.65008585  0.60463753     0.35800
C939        C  0.17923915  0.67200482  0.66820167     0.36400
C940        C  0.21901285  0.61644511  0.96711836     0.39700
N941        N  0.14535089  0.78813525  0.50410613    -0.38400
N942        N  0.20882514  0.72690858  0.50349027    -0.40000
N943        N  0.04868439  0.68865607  0.62764998    -0.37700
N944        N  0.11106546  0.62660531  0.61994567    -0.40100
N945        N  0.16121632  0.66306694  0.92083099    -0.39900
N946        N  0.22833523  0.60714879  0.92551223    -0.37500
N947        N  0.22806174  0.61791554  0.71957364    -0.38600
N948        N  0.17246747  0.68477663  0.70813495    -0.40200
C949        C  0.93202811  0.71233184  0.59869778    -0.05200
C950        C  0.93615793  0.68671816  0.56657031     0.09000
C951        C  0.96232108  0.68293001  0.53524058    -0.02500
C952        C  0.98451101  0.70443903  0.53677242    -0.00800
C953        C  0.98083423  0.72960727  0.57051121    -0.04400
C954        C  0.95441658  0.73360231  0.60116703     0.02600
C955        C  0.91301605  0.66351031  0.56614741     0.09400
C956        C  0.96639104  0.65677913  0.00159249     0.35300
C957        C  0.94981700  0.76008561  0.63372222     0.38800
C958        C  0.89368403  0.66107638  0.52034561    -0.04800
C959        C  0.87254834  0.63851023  0.51906651     0.02400
C960        C  0.86996301  0.61885480  0.56457843    -0.04400
C961        C  0.88874774  0.62194473  0.61127479    -0.00600
C962        C  0.91057207  0.64386579  0.61153255    -0.03200
C963        C  0.89535224  0.68214530  0.47496582     0.36100
C964        C  0.88604996  0.60223785  0.65868890     0.39700
C965        C  0.85290457  0.63606680  0.47157155     0.38800
C966        C  0.93087126  0.64603810  0.65810585     0.35800
C967        C  0.90444182  0.71699746  0.62828520     0.36400
C968        C  0.01141011  0.70030967  0.00464533     0.39700
N969        N  0.83726793  0.63411051  0.43362597    -0.38400
N970        N  0.89670592  0.69909780  0.43903625    -0.40000
N971        N  0.88383700  0.58667293  0.69671584    -0.37700
N972        N  0.94718045  0.64781863  0.69504561    -0.40100
N973        N  0.96954582  0.63594985  0.97461539    -0.39900
N974        N  0.03285658  0.69711055  0.97896690    -0.37500
N975        N  0.94617608  0.78122838  0.65958995    -0.38600
N976        N  0.88236203  0.72076603  0.65159207    -0.40200
C977        C  0.62164720  0.90341994  0.72046558    -0.05200
C978        C  0.64879959  0.89956898  0.69248930     0.09000
C979        C  0.65478130  0.87308128  0.66417030    -0.02500
C980        C  0.63361631  0.85053921  0.66352623    -0.00800
C981        C  0.60634592  0.85447120  0.69113687    -0.04400
C982        C  0.60030601  0.88107708  0.71919923     0.02600
C983        C  0.67136100  0.92331558  0.69324765     0.09400
C984        C  0.68308290  0.86885689  0.63694260     0.35300
C985        C  0.57178216  0.88575097  0.74548698     0.38800
C986        C  0.69185867  0.92477228  0.73732290    -0.04800
C987        C  0.71366165  0.94669182  0.73738392     0.02400
C988        C  0.71491350  0.96742687  0.69353752    -0.04400
C989        C  0.69466922  0.96565686  0.64892365    -0.00600
C990        C  0.67280808  0.94375474  0.64900544    -0.03200
C991        C  0.69068459  0.90337626  0.78217656     0.36100
C992        C  0.69625397  0.98642440  0.60302543     0.39700
C993        C  0.73574687  0.94701020  0.78106794     0.38800
C994        C  0.65178232  0.94210321  0.60357342     0.35800
C995        C  0.61594447  0.93016695  0.75145719     0.36400
C996        C  0.64032324  0.82291879  0.63627337     0.39700
N997        N  0.75355622  0.94712195  0.81556934    -0.38400
N998        N  0.68966585  0.88625181  0.81783754    -0.40000
N999        N  0.69760022  0.00287569  0.56625363    -0.37700
N1000       N  0.63496181  0.94069905  0.56741589    -0.40100
N1001       N  0.70575518  0.86558008  0.61551600    -0.39900
N1002       N  0.64569049  0.80083755  0.61473898    -0.37500
N1003       N  0.54895496  0.88943605  0.76607962    -0.38600
N1004       N  0.61146688  0.95136557  0.77665706    -0.40200
C1005       C  0.40528145  0.65155460  0.65691418    -0.05200
C1006       C  0.41150147  0.66632581  0.70743238     0.09000
C1007       C  0.39581517  0.65902791  0.75665554    -0.02500
C1008       C  0.37448223  0.63660525  0.75570781    -0.00800
C1009       C  0.36847149  0.62142478  0.70524667    -0.04400
C1010       C  0.38393824  0.62918471  0.65575822     0.02600
C1011       C  0.43516784  0.68908987  0.70871543     0.09400
C1012       C  0.40148567  0.67485258  0.80823108     0.35300
C1013       C  0.37889154  0.61342681  0.60387801     0.38800
C1014       C  0.43063872  0.71655147  0.68299213    -0.04800
C1015       C  0.45371574  0.73708826  0.68031064     0.02400
C1016       C  0.48126254  0.73053880  0.70450074    -0.04400
C1017       C  0.48558588  0.70341458  0.73153999    -0.00600
C1018       C  0.46267634  0.68264692  0.73322211    -0.03200
C1019       C  0.40222154  0.72356583  0.65895726     0.36100
C1020       C  0.51402368  0.69638959  0.75555405     0.39700
C1021       C  0.44897406  0.76516896  0.65330593     0.38800
C1022       C  0.46760870  0.65433386  0.75903713     0.35800
C1023       C  0.42111223  0.65932221  0.60604155     0.36400
C1024       C  0.35828119  0.62971465  0.80658922     0.39700
N1025       N  0.44528416  0.78752129  0.63164972    -0.38400
N1026       N  0.37960003  0.72910144  0.63957245    -0.40000
N1027       N  0.53674879  0.69081938  0.77448670    -0.37700
N1028       N  0.47150722  0.63177378  0.77973215    -0.40100
N1029       N  0.40603393  0.68744315  0.84936863    -0.39900
N1030       N  0.34543318  0.62418014  0.84722488    -0.37500
N1031       N  0.37499910  0.60092939  0.56238624    -0.38600
N1032       N  0.43361982  0.66583114  0.56556677    -0.40200
C1033       C  0.67941652  0.64390621  0.73355064    -0.05200
C1034       C  0.67119115  0.65730326  0.68270515     0.09000
C1035       C  0.68390076  0.64746491  0.63197898    -0.02500
C1036       C  0.70456697  0.62433610  0.63205513    -0.00800
C1037       C  0.71433464  0.61203489  0.68337984    -0.04400
C1038       C  0.70130992  0.62197564  0.73423491     0.02600
C1039       C  0.64919174  0.68188376  0.68310547     0.09400
C1040       C  0.67597049  0.66145571  0.57957653     0.35300
C1041       C  0.71082053  0.61053669  0.78793623     0.38800
C1042       C  0.65665103  0.70921362  0.70694297    -0.04800
C1043       C  0.63529144  0.73153970  0.71188637     0.02400
C1044       C  0.60679481  0.72734502  0.68998934    -0.04400
C1045       C  0.59964520  0.70043707  0.66417623    -0.00600
C1046       C  0.62055138  0.67759109  0.66182328    -0.03200
C1047       C  0.68652036  0.71444856  0.72565639     0.36100
C1048       C  0.57043482  0.69593001  0.64139275     0.39700
C1049       C  0.64281067  0.75900792  0.73873960     0.38800
C1050       C  0.61245941  0.64950209  0.63812715     0.35800
C1051       C  0.66532488  0.65289446  0.78556873     0.36400
C1052       C  0.71472936  0.61255042  0.57883323     0.39700
N1053       N  0.64876446  0.78084524  0.76046904    -0.38400
N1054       N  0.71039989  0.71854892  0.74032308    -0.40000
N1055       N  0.54716598  0.69238886  0.62310475    -0.37700
N1056       N  0.60605690  0.62713595  0.61899420    -0.40100
N1057       N  0.66965322  0.67259507  0.53777987    -0.39900
N1058       N  0.72260360  0.60304682  0.53635422    -0.37500
N1059       N  0.71826146  0.60147359  0.83089229    -0.38600
N1060       N  0.65411008  0.66012576  0.82696408    -0.40200
C1061       C  0.38142444  0.91037484  0.70171732    -0.05200
C1062       C  0.41136852  0.91810021  0.70606176     0.09000
C1063       C  0.41935483  0.94773372  0.71213707    -0.02500
C1064       C  0.39752214  0.96964624  0.71365205    -0.00800
C1065       C  0.36741645  0.96200402  0.70965699    -0.04400
C1066       C  0.35946730  0.93221150  0.70390690     0.02600
C1067       C  0.43472233  0.89503375  0.70423836     0.09400
C1068       C  0.45018792  0.95563732  0.71648393     0.35300
C1069       C  0.32868031  0.92384688  0.70196852     0.38800
C1070       C  0.45002940  0.88942635  0.65401692    -0.04800
C1071       C  0.47313700  0.86876472  0.65261836     0.02400
C1072       C  0.48105608  0.85296675  0.70191779    -0.04400
C1073       C  0.46499917  0.85866185  0.75229537    -0.00600
C1074       C  0.44204399  0.87952215  0.75311387    -0.03200
C1075       C  0.44175037  0.90502635  0.60343508     0.36100
C1076       C  0.47138463  0.84306076  0.80379674     0.39700
C1077       C  0.48874107  0.86455478  0.59997113     0.38800
C1078       C  0.42562789  0.88505083  0.80444111     0.35800
C1079       C  0.37331492  0.87989986  0.69476511     0.36400
C1080       C  0.40622708  0.00014028  0.71739781     0.39700
N1081       N  0.50094211  0.86131063  0.55771216    -0.38400
N1082       N  0.43505527  0.91743891  0.56320321    -0.40000
N1083       N  0.47633740  0.83085295  0.84518500    -0.37700
N1084       N  0.41236242  0.88942866  0.84511944    -0.40100
N1085       N  0.47478638  0.96188710  0.71983530    -0.39900
N1086       N  0.41311867  0.02446810  0.72036656    -0.37500
N1087       N  0.30412955  0.91718271  0.70053414    -0.38600
N1088       N  0.36691979  0.85556923  0.68914885    -0.40200
C1089       C  0.42935875  0.36970733  0.81371353    -0.05200
C1090       C  0.43556132  0.39752100  0.83655372     0.09000
C1091       C  0.46288262  0.40254695  0.86278842    -0.02500
C1092       C  0.48398304  0.37998733  0.86572871    -0.00800
C1093       C  0.47844935  0.35271628  0.83999924    -0.04400
C1094       C  0.45087525  0.34745185  0.81485236     0.02600
C1095       C  0.41299839  0.42137323  0.83449166     0.09400
C1096       C  0.46936533  0.43112250  0.88621129     0.35300
C1097       C  0.44421014  0.31872602  0.79225095     0.38800
C1098       C  0.39746693  0.42919977  0.88342485    -0.04800
C1099       C  0.37708325  0.45246941  0.88255369     0.02400
C1100       C  0.37051404  0.46715650  0.83141579    -0.04400
C1101       C  0.38593013  0.45860814  0.78194679    -0.00600
C1102       C  0.40746084  0.43631768  0.78399222    -0.03200
C1103       C  0.40235809  0.41293881  0.93485806     0.36100
C1104       C  0.37928444  0.47177541  0.72812436     0.39700
C1105       C  0.36372952  0.46144681  0.93527610     0.38800
C1106       C  0.42401031  0.42860263  0.73389044     0.35800
C1107       C  0.40065220  0.36394309  0.78977316     0.36400
C1108       C  0.51150914  0.38498265  0.89478643     0.39700
N1109       N  0.35319677  0.46839335  0.97751284    -0.38400
N1110       N  0.40625395  0.39986736  0.97568577    -0.40000
N1111       N  0.37409495  0.48213950  0.68502374    -0.37700
N1112       N  0.43721841  0.42241745  0.69400833    -0.40100
N1113       N  0.47445866  0.45392343  0.90486491    -0.39900
N1114       N  0.53334274  0.38888329  0.91838118    -0.37500
N1115       N  0.43883578  0.29577122  0.77458403    -0.38600
N1116       N  0.37772080  0.35939303  0.77080899    -0.40200
C1117       C  0.68007084  0.14916256  0.77845030    -0.05200
C1118       C  0.67474471  0.16501880  0.82807657     0.09000
C1119       C  0.69142830  0.15895555  0.87621728    -0.02500
C1120       C  0.71259655  0.13627627  0.87570374    -0.00800
C1121       C  0.71813737  0.11986616  0.82583474    -0.04400
C1122       C  0.70178067  0.12704494  0.77685679     0.02600
C1123       C  0.65122301  0.18801451  0.82952518     0.09400
C1124       C  0.68692652  0.17647568  0.92634845     0.35300
C1125       C  0.70741459  0.11251597  0.72373386     0.38800
C1126       C  0.62381457  0.18205965  0.85525124    -0.04800
C1127       C  0.60121863  0.20322455  0.85451672     0.02400
C1128       C  0.60584126  0.23043150  0.82781317    -0.04400
C1129       C  0.63318042  0.23631491  0.80170309    -0.00600
C1130       C  0.65600698  0.21539711  0.80367445    -0.03200
C1131       C  0.61894782  0.15418313  0.88282178     0.36100
C1132       C  0.63808563  0.26409756  0.77377615     0.39700
C1133       C  0.57280612  0.19662828  0.87961572     0.38800
C1134       C  0.68475148  0.22227792  0.78048577     0.35800
C1135       C  0.66316313  0.15586441  0.72855058     0.36400
C1136       C  0.72792724  0.12984980  0.92749889     0.39700
N1137       N  0.55009288  0.19143367  0.89937709    -0.38400
N1138       N  0.61511795  0.13205377  0.90525785    -0.40000
N1139       N  0.64204691  0.28621779  0.75136803    -0.37700
N1140       N  0.70777077  0.22779834  0.76244701    -0.40100
N1141       N  0.68337061  0.19056926  0.96611402    -0.39900
N1142       N  0.74008364  0.12500518  0.96899599    -0.37500
N1143       N  0.71167971  0.10102563  0.68121256    -0.38600
N1144       N  0.64978973  0.16135356  0.68876920    -0.40200
C1145       C  0.65511219  0.36962825  0.84816450    -0.05200
C1146       C  0.64870602  0.39777624  0.82706889     0.09000
C1147       C  0.61990904  0.40432867  0.80897232    -0.02500
C1148       C  0.59792001  0.38254648  0.81002842    -0.00800
C1149       C  0.60421275  0.35451618  0.83189562    -0.04400
C1150       C  0.63276537  0.34828761  0.85188199     0.02600
C1151       C  0.67238427  0.42052900  0.82395064     0.09400
C1152       C  0.61285021  0.43365542  0.79008068     0.35300
C1153       C  0.63938879  0.31972167  0.87518615     0.38800
C1154       C  0.68631414  0.42678846  0.77236512    -0.04800
C1155       C  0.70891800  0.44792815  0.76951238     0.02400
C1156       C  0.71785563  0.46302685  0.81845895    -0.04400
C1157       C  0.70400779  0.45635878  0.87030936    -0.00600
C1158       C  0.68120354  0.43544472  0.87278904    -0.03200
C1159       C  0.67747815  0.41118692  0.72222085     0.36100
C1160       C  0.71268594  0.47132393  0.92126971     0.39700
C1161       C  0.72370670  0.45317345  0.71639442     0.38800
C1162       C  0.66639733  0.42950445  0.92559785     0.35800
C1163       C  0.68487864  0.36254211  0.86523287     0.36400
C1164       C  0.56866841  0.38913242  0.78939480     0.39700
N1165       N  0.73549286  0.45728230  0.67401500    -0.38400
N1166       N  0.67033933  0.39875905  0.68228048    -0.40000
N1167       N  0.71973874  0.48305360  0.96204271    -0.37700
N1168       N  0.65451601  0.42477946  0.96763991    -0.40100
N1169       N  0.60718748  0.45711756  0.77536963    -0.39900
N1170       N  0.54537224  0.39433207  0.77268775    -0.37500
N1171       N  0.64476858  0.29701223  0.89403892    -0.38600
N1172       N  0.70866961  0.35691768  0.87861194    -0.40200
C1173       C  0.41693637  0.13625269  0.87475597    -0.05200
C1174       C  0.41650594  0.15811764  0.83296451     0.09000
C1175       C  0.39492388  0.15723181  0.79069345    -0.02500
C1176       C  0.37380630  0.13464669  0.79025700    -0.00800
C1177       C  0.37370259  0.11326793  0.83295414    -0.04400
C1178       C  0.39555560  0.11387290  0.87477584     0.02600
C1179       C  0.43885861  0.18213130  0.83334900     0.09400
C1180       C  0.39410035  0.18001256  0.74843348     0.35300
C1181       C  0.39648533  0.09098636  0.91685197     0.38800
C1182       C  0.46451553  0.17980991  0.80010998    -0.04800
C1183       C  0.48567648  0.20236437  0.80058762     0.02400
C1184       C  0.48124420  0.22751682  0.83421691    -0.04400
C1185       C  0.45543606  0.22983350  0.86736826    -0.00600
C1186       C  0.43423580  0.20728722  0.86656246    -0.03200
C1187       C  0.46900379  0.15419472  0.76514104     0.36100
C1188       C  0.45020974  0.25578968  0.90106064     0.39700
C1189       C  0.51251680  0.19917112  0.76786589     0.38800
C1190       C  0.40726418  0.21017835  0.89891599     0.35800
C1191       C  0.43930590  0.13695158  0.91787345     0.36400
C1192       C  0.35181326  0.13368990  0.74642770     0.39700
N1193       N  0.53397691  0.19666233  0.74196871    -0.38400
N1194       N  0.47249511  0.13382500  0.73704792    -0.40000
N1195       N  0.44605616  0.27648396  0.92795414    -0.37700
N1196       N  0.38565227  0.21248724  0.92440903    -0.40100
N1197       N  0.39340601  0.19831655  0.71496364    -0.39900
N1198       N  0.33431692  0.13274578  0.71140330    -0.37500
N1199       N  0.39728730  0.07258558  0.95013507    -0.38600
N1200       N  0.45712758  0.13757359  0.95233142    -0.40200
loop_ 
_geom_bond_atom_site_label_1 
_geom_bond_atom_site_label_2 
_geom_bond_distance 
_geom_bond_site_symmetry_2 
_ccdc_geom_bond_type 
C1            N2   1.358       .  A
C1            N6   1.359       .  A
C1          C577   1.480       .  S
N2            C3   1.357       .  A
C3            N4   1.358       .  A
C3           C41   1.463       .  S
N4            C5   1.359       .  A
C5            N6   1.357       .  A
C5          C137   1.463       .  S
O7          Ni15   1.920       .  S
O7           C17   1.282       .  A
O8          Ni15   1.921       .  S
O8           C18   1.281       .  A
O9          Ni15   1.916       .  S
O9           C19   1.280       .  A
O10         Ni15   1.913       .  S
O10          C20   1.280       .  A
O11         Ni16   1.919       .  S
O11          C20   1.281       .  A
O12         Ni16   1.916       .  S
O12          C19   1.281       .  A
O13         Ni16   1.917       .  S
O13          C18   1.281       .  A
O14         Ni16   1.916       .  S
O14          C17   1.281       .  A
Ni15        Ni16   2.391       .  S
C17         C584   1.486       .  S
C18         C549   1.482       .  S
C19         C493   1.480       .  S
C20         C528   1.480       .  S
C21          N22   1.360       .  A
C21          N26   1.361       .  A
C21         C521   1.510       .  S
N22          C23   1.357       .  A
C23          N24   1.357       .  A
C23         C143   1.463       .  S
N24          C25   1.357       .  A
C25          N26   1.357       .  A
C25          C61   1.464       .  S
C27          N28   1.362       .  A
C27          N32   1.357       .  A
C27         C500   1.504       .  S
N28          C29   1.359       .  A
C29          N30   1.360       .  A
C29          C67   1.467       .  S
N30          C31   1.359       .  A
C31          N32   1.353       .  A
C31         C131   1.463       .  S
C33          N34   1.359       .  A
C33          N38   1.360       .  A
C33         C556   1.494       .  S
N34          C35   1.357       .  A
C35          N36   1.360       .  A
C35         C149   1.466       .  S
N36          C37   1.360       .  A
C37          N38   1.358       .  A
C37          C73   1.467       .  S
C39          N40   1.358   1_565  A
C39          N44   1.358       .  A
C39         C465   1.486       .  S
N40          C41   1.356       .  A
C41          N42   1.360       .  A
N42          C43   1.360       .  A
C43          N44   1.357   1_545  A
C43          C93   1.463       .  S
O45         Ni53   1.924       .  S
O45          C55   1.283       .  A
O46         Ni53   1.922       .  S
O46          C56   1.283       .  A
O47         Ni53   1.914       .  S
O47          C57   1.280       .  A
O48         Ni53   1.909       .  S
O48          C58   1.279       .  A
O49         Ni54   1.921       .  S
O49          C58   1.281       .  A
O50         Ni54   1.914       .  S
O50          C57   1.280       .  A
O51         Ni54   1.913       .  S
O51          C56   1.280       .  A
O52         Ni54   1.914       .  S
O52          C55   1.280       .  A
Ni53        Ni54   2.387       .  S
C55         C444   1.484       .  S
C56         C472   1.509       .  S
C57         C416   1.478       .  S
C58         C381   1.479       .  S
C59          N60   1.359   1_565  A
C59          N64   1.358       .  A
C59         C388   1.481       .  S
N60          C61   1.358       .  A
C61          N62   1.359       .  A
N62          C63   1.358       .  A
C63          N64   1.357   1_545  A
C63         C105   1.462       .  S
C65          N66   1.360       .  A
C65          N70   1.360       .  A
C65         C409   1.491       .  S
N66          C67   1.357       .  A
C67          N68   1.360       .  A
N68          C69   1.360       .  A
C69          N70   1.358       .  A
C69          C99   1.469       .  S
C71          N72   1.360       .  A
C71          N76   1.360       .  A
C71         C437   1.501       .  S
N72          C73   1.357       .  A
C73          N74   1.360       .  A
N74          C75   1.360       .  A
C75          N76   1.357       .  A
C75         C111   1.466       .  S
O77         Ni85   1.917       .  S
O77          C87   1.281       .  A
O78         Ni85   1.913       .  S
O78          C88   1.280       .  A
O79         Ni85   1.921       .  S
O79          C89   1.282       .  A
O80         Ni85   1.921       .  S
O80          C90   1.282       .  A
O81         Ni86   1.914       .  S
O81          C90   1.281       .  A
O82         Ni86   1.920       .  S
O82          C89   1.281       .  A
O83         Ni86   1.914       .  S
O83          C88   1.280       .  A
O84         Ni86   1.914       .  S
O84          C87   1.280       .  A
Ni85        Ni86   2.390       .  S
C87         C276   1.479       .  S
C88         C353   1.480   1_455  S
C89         C332   1.485       .  S
C90         C304   1.488   1_455  S
C91          N92   1.359       .  A
C91          N96   1.358   1_565  A
C91         C269   1.485       .  S
N92          C93   1.357   1_565  A
C93          N94   1.359       .  A
N94          C95   1.359       .  A
C95          N96   1.356       .  A
C95         C739   1.461       .  S
C97          N98   1.361       .  A
C97         N102   1.360       .  A
C97         C325   1.502       .  S
N98          C99   1.358       .  A
C99         N100   1.361       .  A
N100        C101   1.360       .  A
C101        N102   1.357       .  A
C101        C733   1.467   1_554  S
C103        N104   1.359       .  A
C103        N108   1.361   1_565  A
C103        C297   1.503       .  S
N104        C105   1.355   1_565  A
C105        N106   1.358       .  A
N106        C107   1.359       .  A
C107        N108   1.358       .  A
C107        C145   1.464   1_554  S
C109        N110   1.359       .  A
C109        N114   1.360       .  A
C109        C360   1.484       .  S
N110        C111   1.357       .  A
C111        N112   1.359       .  A
N112        C113   1.360       .  A
C113        N114   1.358       .  A
C113        C751   1.467   1_554  S
O115       Ni123   1.915       .  S
O115        C125   1.280       .  A
O116       Ni123   1.916       .  S
O116        C126   1.281       .  A
O117       Ni123   1.917       .  S
O117        C127   1.281       .  A
O118       Ni123   1.913       .  S
O118        C128   1.281       .  A
O119       Ni124   1.912       .  S
O119        C128   1.280       .  A
O120       Ni124   1.916       .  S
O120        C127   1.281       .  A
O121       Ni124   1.917       .  S
O121        C126   1.281       .  A
O122       Ni124   1.916       .  S
O122        C125   1.281       .  A
Ni123      Ni124   2.392       .  S
C125        C248   1.478   1_455  S
C126        C192   1.479       .  S
C127        C157   1.482       .  S
C128        C213   1.481   1_455  S
C129        N130   1.359       .  A
C129        N134   1.361       .  A
C129        C164   1.486       .  S
N130        C131   1.356       .  A
C131        N132   1.358       .  A
N132        C133   1.359       .  A
C133        N134   1.359       .  A
C133        C701   1.467       .  S
C135        N136   1.361       .  A
C135        N140   1.359       .  A
C135        C185   1.498       .  S
N136        C137   1.358       .  A
C137        N138   1.358       .  A
N138        C139   1.358       .  A
C139        N140   1.356       .  A
C139        C695   1.461       .  S
C141        N142   1.359       .  A
C141        N746   1.359       .  A
C141        C220   1.481       .  S
N142        C143   1.357       .  A
C143        N144   1.359       .  A
N144        C745   1.359       .  A
C145        N146   1.357       .  A
C145        N744   1.359       .  A
N146        C741   1.359       .  A
C147        N148   1.359       .  A
C147        N152   1.360       .  A
C147        C241   1.498       .  S
N148        C149   1.356       .  A
C149        N150   1.360       .  A
N150        C151   1.360       .  A
C151        N152   1.358       .  A
C151        C713   1.467       .  S
C153        C154   1.411       .  A
C153        C158   1.410       .  A
C153        C171   1.450       .  S
C154        C159   1.496       .  S
C154        C155   1.411       .  A
C155        C156   1.410       .  A
C155        C760   1.451       .  S
C156        C157   1.414       .  A
C156        C772   1.451       .  S
C157        C158   1.413       .  A
C158        C161   1.452       .  S
C159        C162   1.410       .  A
C159        C166   1.411       .  A
C160        C755   1.451       .  S
C160        N177   1.157   1_556  T
C161        N179   1.157       .  T
C162        C163   1.411       .  A
C162        C167   1.450       .  S
C163        C164   1.415       .  A
C163        C169   1.451       .  S
C164        C165   1.414       .  A
C165        C166   1.412       .  A
C165        C768   1.451       .  S
C166        C770   1.451       .  S
C167        N174   1.157       .  T
C168        C765   1.451   1_554  S
C168        N175   1.158       .  T
C169        N173   1.157       .  T
C170        C766   1.451   1_554  S
C170        N176   1.157       .  T
C171        N180   1.157       .  T
C172        C756   1.451       .  S
C172        N178   1.157   1_556  T
C181        C182   1.411       .  A
C181        C186   1.412       .  A
C181        C199   1.452       .  S
C182        C187   1.499       .  S
C182        C183   1.410       .  A
C183        C184   1.411       .  A
C183        C788   1.452       .  S
C184        C185   1.421       .  A
C184        C800   1.452       .  S
C185        C186   1.420       .  A
C186        C189   1.452       .  S
C187        C190   1.413       .  A
C187        C194   1.414       .  A
C188        C783   1.452       .  S
C188        N205   1.157       .  T
C189        N207   1.157       .  T
C190        C191   1.410       .  A
C190        C195   1.451       .  S
C191        C192   1.412       .  A
C191        C197   1.451       .  S
C192        C193   1.411       .  A
C193        C194   1.410       .  A
C193        C196   1.451       .  S
C194        C198   1.451       .  S
C195        N202   1.157       .  T
C196        N203   1.157       .  T
C197        N201   1.157       .  T
C198        N204   1.157       .  T
C199        N208   1.157       .  T
C200        C784   1.452       .  S
C200        N206   1.158       .  T
C209        C210   1.411       .  A
C209        C214   1.409       .  A
C209        C227   1.451       .  S
C210        C215   1.494       .  S
C210        C211   1.411       .  A
C211        C212   1.409       .  A
C211        C816   1.451       .  S
C212        C213   1.414       .  A
C212        C828   1.452   1_655  S
C213        C214   1.414       .  A
C214        C217   1.452       .  S
C215        C218   1.411       .  A
C215        C222   1.411       .  A
C216        C811   1.451   1_554  S
C216        N233   1.157       .  T
C217        N235   1.157       .  T
C218        C219   1.410       .  A
C218        C223   1.451       .  S
C219        C220   1.413       .  A
C219        C225   1.451       .  S
C220        C221   1.413       .  A
C221        C222   1.409       .  A
C221        C824   1.451       .  S
C222        C826   1.451       .  S
C223        N230   1.157       .  T
C224        C821   1.451   1_554  S
C224        N231   1.157       .  T
C225        N229   1.157       .  T
C226        C822   1.451   1_554  S
C226        N232   1.157       .  T
C227        N236   1.157       .  T
C228        C812   1.452   1_454  S
C228        N234   1.158       .  T
C237        C238   1.411       .  A
C237        C242   1.412       .  A
C237        C855   1.452       .  S
C238        C243   1.498       .  S
C238        C239   1.410       .  A
C239        C240   1.410       .  A
C239        C244   1.452       .  S
C240        C241   1.421       .  A
C240        C256   1.452       .  S
C241        C242   1.420       .  A
C242        C845   1.452       .  S
C243        C246   1.414       .  A
C243        C250   1.413       .  A
C244        N261   1.157       .  T
C245        C842   1.452   1_554  S
C245        N263   1.157       .  T
C246        C247   1.411       .  A
C246        C251   1.451       .  S
C247        C248   1.412       .  A
C247        C253   1.452       .  S
C248        C249   1.411       .  A
C249        C250   1.408       .  A
C249        C252   1.451   1_655  S
C250        C254   1.451       .  S
C251        N258   1.157       .  T
C252        N259   1.157       .  T
C253        N257   1.157       .  T
C254        N260   1.157       .  T
C255        C837   1.452   1_554  S
C255        N264   1.157       .  T
C256        N262   1.157       .  T
C265        C266   1.410       .  A
C265        C270   1.410       .  A
C265        C283   1.451       .  S
C266        C271   1.494       .  S
C266        C267   1.411       .  A
C267        C268   1.410       .  A
C267        C872   1.451   1_554  S
C268        C269   1.415       .  A
C268        C884   1.451   1_554  S
C269        C270   1.415       .  A
C270        C273   1.452       .  S
C271        C274   1.412       .  A
C271        C278   1.411       .  A
C272        C867   1.451       .  S
C272        N289   1.157       .  T
C273        N291   1.157       .  T
C274        C275   1.410       .  A
C274        C279   1.451       .  S
C275        C276   1.413       .  A
C275        C281   1.452       .  S
C276        C277   1.412       .  A
C277        C278   1.409       .  A
C277        C280   1.451       .  S
C278        C282   1.451       .  S
C279        N286   1.157       .  T
C280        N287   1.157       .  T
C281        N285   1.157       .  T
C282        N288   1.157       .  T
C283        N292   1.157       .  T
C284        C868   1.451       .  S
C284        N290   1.157       .  T
C293        C294   1.407       .  A
C293        C298   1.411       .  A
C293        C311   1.452       .  S
C294        C299   1.498       .  S
C294        C295   1.409       .  A
C295        C296   1.412       .  A
C295        C300   1.452       .  S
C296        C297   1.423       .  A
C296        C312   1.452       .  S
C297        C298   1.424       .  A
C298        C301   1.452       .  S
C299        C302   1.411       .  A
C299        C306   1.411       .  A
C300        N317   1.157       .  T
C301        N919   1.158       .  T
C302        C303   1.409       .  A
C302        C307   1.451       .  S
C303        C304   1.416       .  A
C303        C309   1.452       .  S
C304        C305   1.416       .  A
C305        C306   1.412       .  A
C305        C308   1.451   1_655  S
C306        C310   1.451       .  S
C307        N314   1.157   1_554  T
C308        N315   1.157       .  T
C309        N313   1.157   1_554  T
C310        N316   1.157       .  T
C311        N920   1.157       .  T
C312        N318   1.157   1_565  T
N319        C901   1.158       .  T
N320        C911   1.157       .  T
C321        C322   1.410       .  A
C321        C326   1.412       .  A
C321        C339   1.452       .  S
C322        C327   1.502       .  S
C322        C323   1.410       .  A
C323        C324   1.413       .  A
C323        C928   1.451   1_554  S
C324        C325   1.422       .  A
C324        C940   1.452   1_554  S
C325        C326   1.421       .  A
C326        C329   1.452       .  S
C327        C330   1.413       .  A
C327        C334   1.413       .  A
C328        C923   1.451       .  S
C328        N345   1.157       .  T
C329        N347   1.157       .  T
C330        C331   1.412       .  A
C330        C335   1.451       .  S
C331        C332   1.413       .  A
C331        C337   1.451       .  S
C332        C333   1.413       .  A
C333        C334   1.411       .  A
C333        C336   1.452       .  S
C334        C338   1.451       .  S
C335        N342   1.157       .  T
C336        N343   1.157       .  T
C337        N341   1.157       .  T
C338        N344   1.157       .  T
C339        N348   1.157       .  T
C340        C924   1.452       .  S
C340        N346   1.158       .  T
C349        C350   1.411       .  A
C349        C354   1.409       .  A
C349        C367   1.451       .  S
C350        C355   1.494       .  S
C350        C351   1.411       .  A
C351        C352   1.409       .  A
C351        C956   1.450       .  S
C352        C353   1.413       .  A
C352        C968   1.451   1_655  S
C353        C354   1.414       .  A
C354        C357   1.452       .  S
C355        C358   1.410       .  A
C355        C362   1.411       .  A
C356        C951   1.450       .  S
C356        N373   1.157       .  T
C357        N375   1.157       .  T
C358        C359   1.410       .  A
C358        C363   1.451   1_554  S
C359        C360   1.414       .  A
C359        C365   1.450   1_554  S
C360        C361   1.414       .  A
C361        C362   1.410       .  A
C361        C364   1.451       .  S
C362        C366   1.451       .  S
C363        N370   1.157       .  T
C364        N371   1.157       .  T
C365        N369   1.157       .  T
C366        N372   1.157       .  T
C367        N376   1.157       .  T
C368        C952   1.451   1_455  S
C368        N374   1.157       .  T
C377        C378   1.410       .  A
C377        C382   1.409       .  A
C377        C395   1.451       .  S
C378        C383   1.494       .  S
C378        C379   1.411       .  A
C379        C380   1.410       .  A
C379        C384   1.450       .  S
C380        C381   1.411       .  A
C380        C396   1.451       .  S
C381        C382   1.414       .  A
C382        C385   1.452       .  S
C383        C386   1.410       .  A
C383        C390   1.411       .  A
C384        N401   1.157       .  T
C385        N403   1.157       .  T
C386        C387   1.410       .  A
C386        C391   1.451       .  S
C387        C388   1.413       .  A
C387        C393   1.451       .  S
C388        C389   1.413       .  A
C389        C390   1.411       .  A
C389        C392   1.451       .  S
C390        C394   1.451       .  S
C391        N398   1.157       .  T
C392        N399   1.157   1_565  T
C393        N397   1.157       .  T
C394        N400   1.157       .  T
C395        N404   1.157       .  T
C396        N402   1.157       .  T
C405        C406   1.411       .  A
C405        C410   1.410       .  A
C405        C423   1.452       .  S
C406        C411   1.497       .  S
C406        C407   1.411       .  A
C407        C408   1.411       .  A
C407        C412   1.451       .  S
C408        C409   1.417       .  A
C408        C424   1.451       .  S
C409        C410   1.416       .  A
C410        C413   1.451       .  S
C411        C414   1.412       .  A
C411        C418   1.413       .  A
C412        N429   1.157       .  T
C413        N431   1.157       .  T
C414        C415   1.409       .  A
C414        C419   1.451       .  S
C415        C416   1.413       .  A
C415        C421   1.452       .  S
C416        C417   1.411       .  A
C417        C418   1.410       .  A
C417        C420   1.452       .  S
C418        C422   1.451       .  S
C419        N426   1.157       .  T
C420        N427   1.157       .  T
C421        N425   1.157       .  T
C422        N428   1.157       .  T
C423        N432   1.157       .  T
C424        N430   1.157       .  T
C433        C434   1.411       .  A
C433        C438   1.411       .  A
C433        C451   1.452       .  S
C434        C439   1.503       .  S
C434        C435   1.411       .  A
C435        C436   1.413       .  A
C435        C440   1.451       .  S
C436        C437   1.421       .  A
C436        C452   1.452       .  S
C437        C438   1.421       .  A
C438        C441   1.452       .  S
C439        C442   1.414       .  A
C439        C446   1.413       .  A
C440        N457   1.157       .  T
C441        N459   1.158       .  T
C442        C443   1.412       .  A
C442        C447   1.451       .  S
C443        C444   1.412       .  A
C443        C449   1.451       .  S
C444        C445   1.414       .  A
C445        C446   1.411       .  A
C445        C448   1.452       .  S
C446        C450   1.451       .  S
C447        N454   1.157       .  T
C448        N455   1.157       .  T
C449        N453   1.157       .  T
C450        N456   1.157       .  T
C451        N460   1.157       .  T
C452        N458   1.157       .  T
C461        C462   1.410       .  A
C461        C466   1.411       .  A
C461        C479   1.451       .  S
C462        C467   1.495       .  S
C462        C463   1.410       .  A
C463        C464   1.409       .  A
C463        C468   1.451       .  S
C464        C465   1.416       .  A
C464        C480   1.452   1_565  S
C465        C466   1.416       .  A
C466        C469   1.451       .  S
C467        C470   1.406       .  A
C467        C474   1.406       .  A
C468        N485   1.157       .  T
C469        N487   1.157       .  T
C470        C471   1.411       .  A
C470        C475   1.453       .  S
C471        C472   1.428       .  A
C471        C477   1.452       .  S
C472        C473   1.426       .  A
C473        C474   1.412       .  A
C473        C476   1.451       .  S
C474        C478   1.452       .  S
C475        N482   1.157       .  T
C476        N483   1.157       .  T
C477        N481   1.157       .  T
C478        N484   1.157       .  T
C479        N488   1.157       .  T
C480        N486   1.157       .  T
C489        C490   1.412       .  A
C489        C494   1.410       .  A
C489        C507   1.451       .  S
C490        C495   1.496       .  S
C490        C491   1.412       .  A
C491        C492   1.409       .  A
C491        C496   1.451       .  S
C492        C493   1.412       .  A
C492        C508   1.451       .  S
C493        C494   1.413       .  A
C494        C497   1.452       .  S
C495        C498   1.407       .  A
C495        C502   1.409       .  A
C496        N513   1.157       .  T
C497        N515   1.157       .  T
C498        C499   1.409       .  A
C498        C503   1.453       .  S
C499        C500   1.426       .  A
C499        C505   1.453       .  S
C500        C501   1.424       .  A
C501        C502   1.412       .  A
C501        C504   1.451       .  S
C502        C506   1.452       .  S
C503        N510   1.157       .  T
C504        N511   1.158       .  T
C505        N509   1.157       .  T
C506        N512   1.157       .  T
C507        N516   1.157       .  T
C508        N514   1.157       .  T
C517        C518   1.408       .  A
C517        C522   1.412       .  A
C517        C535   1.453       .  S
C518        C523   1.498       .  S
C518        C519   1.407       .  A
C519        C520   1.413       .  A
C519        C524   1.452       .  S
C520        C521   1.427       .  A
C520        C536   1.452       .  S
C521        C522   1.426       .  A
C522        C525   1.452       .  S
C523        C526   1.412       .  A
C523        C530   1.412       .  A
C524        N541   1.157       .  T
C525        N543   1.157       .  T
C526        C527   1.410       .  A
C526        C531   1.450       .  S
C527        C528   1.413       .  A
C527        C533   1.452       .  S
C528        C529   1.413       .  A
C529        C530   1.410       .  A
C529        C532   1.451       .  S
C530        C534   1.451       .  S
C531        N538   1.157       .  T
C532        N539   1.157       .  T
C533        N537   1.157       .  T
C534        N540   1.157       .  T
C535        N544   1.157       .  T
C536        N542   1.158       .  T
C545        C546   1.412       .  A
C545        C550   1.411       .  A
C545        C563   1.451       .  S
C546        C551   1.499       .  S
C546        C547   1.412       .  A
C547        C548   1.411       .  A
C547        C552   1.450       .  S
C548        C549   1.413       .  A
C548        C564   1.451       .  S
C549        C550   1.413       .  A
C550        C553   1.451       .  S
C551        C554   1.411       .  A
C551        C558   1.410       .  A
C552        N569   1.157       .  T
C553        N571   1.157       .  T
C554        C555   1.412       .  A
C554        C559   1.451       .  S
C555        C556   1.418       .  A
C555        C561   1.452       .  S
C556        C557   1.418       .  A
C557        C558   1.411       .  A
C557        C560   1.451       .  S
C558        C562   1.451       .  S
C559        N566   1.157       .  T
C560        N567   1.157       .  T
C561        N565   1.157       .  T
C562        N568   1.157       .  T
C563        N572   1.157       .  T
C564        N570   1.157       .  T
C573        C574   1.412       .  A
C573        C578   1.411       .  A
C573        C591   1.450       .  S
C574        C579   1.496       .  S
C574        C575   1.411       .  A
C575        C576   1.410       .  A
C575        C580   1.450       .  S
C576        C577   1.412       .  A
C576        C592   1.451       .  S
C577        C578   1.412       .  A
C578        C581   1.451       .  S
C579        C582   1.410       .  A
C579        C586   1.411       .  A
C580        N597   1.157       .  T
C581        N599   1.157       .  T
C582        C583   1.410       .  A
C582        C587   1.451       .  S
C583        C584   1.415       .  A
C583        C589   1.452       .  S
C584        C585   1.415       .  A
C585        C586   1.411       .  A
C585        C588   1.451       .  S
C586        C590   1.451       .  S
C587        N594   1.157       .  T
C588        N595   1.157       .  T
C589        N593   1.157       .  T
C590        N596   1.157       .  T
C591        N600   1.157       .  T
C592        N598   1.157       .  T
C601        N602   1.358       .  A
C601        N606   1.359       .  A
C601       C1177   1.480       .  S
N602        C603   1.357       .  A
C603        N604   1.358       .  A
C603        C641   1.463       .  S
N604        C605   1.359       .  A
C605        N606   1.357       .  A
C605        C737   1.463       .  S
O607       Ni615   1.920       .  S
O607        C617   1.282       .  A
O608       Ni615   1.921       .  S
O608        C618   1.281       .  A
O609       Ni615   1.916       .  S
O609        C619   1.280       .  A
O610       Ni615   1.913       .  S
O610        C620   1.280       .  A
O611       Ni616   1.919       .  S
O611        C620   1.281       .  A
O612       Ni616   1.916       .  S
O612        C619   1.281       .  A
O613       Ni616   1.917       .  S
O613        C618   1.281       .  A
O614       Ni616   1.916       .  S
O614        C617   1.281       .  A
Ni615      Ni616   2.391       .  S
C617       C1184   1.486       .  S
C618       C1149   1.482       .  S
C619       C1093   1.480       .  S
C620       C1128   1.480       .  S
C621        N622   1.360       .  A
C621        N626   1.361       .  A
C621       C1121   1.510       .  S
N622        C623   1.357       .  A
C623        N624   1.357       .  A
C623        C743   1.463       .  S
N624        C625   1.357       .  A
C625        N626   1.357       .  A
C625        C661   1.464       .  S
C627        N628   1.362       .  A
C627        N632   1.357       .  A
C627       C1100   1.504       .  S
N628        C629   1.359       .  A
C629        N630   1.360       .  A
C629        C667   1.467       .  S
N630        C631   1.359       .  A
C631        N632   1.353       .  A
C631        C731   1.463       .  S
C633        N634   1.359       .  A
C633        N638   1.360       .  A
C633       C1156   1.494       .  S
N634        C635   1.357       .  A
C635        N636   1.360       .  A
C635        C749   1.466       .  S
N636        C637   1.360       .  A
C637        N638   1.358       .  A
C637        C673   1.467       .  S
C639        N640   1.358   1_565  A
C639        N644   1.358       .  A
C639       C1065   1.486       .  S
N640        C641   1.356       .  A
C641        N642   1.360       .  A
N642        C643   1.360       .  A
C643        N644   1.357   1_545  A
C643        C693   1.463       .  S
O645       Ni653   1.924       .  S
O645        C655   1.283       .  A
O646       Ni653   1.922       .  S
O646        C656   1.283       .  A
O647       Ni653   1.914       .  S
O647        C657   1.280       .  A
O648       Ni653   1.909       .  S
O648        C658   1.279       .  A
O649       Ni654   1.921       .  S
O649        C658   1.281       .  A
O650       Ni654   1.914       .  S
O650        C657   1.280       .  A
O651       Ni654   1.913       .  S
O651        C656   1.280       .  A
O652       Ni654   1.914       .  S
O652        C655   1.280       .  A
Ni653      Ni654   2.387       .  S
C655       C1044   1.484       .  S
C656       C1072   1.509       .  S
C657       C1016   1.478       .  S
C658        C981   1.479       .  S
C659        N660   1.359   1_565  A
C659        N664   1.358       .  A
C659        C988   1.481       .  S
N660        C661   1.358       .  A
C661        N662   1.359       .  A
N662        C663   1.358       .  A
C663        N664   1.357   1_545  A
C663        C705   1.462       .  S
C665        N666   1.360       .  A
C665        N670   1.360       .  A
C665       C1009   1.491       .  S
N666        C667   1.357       .  A
C667        N668   1.360       .  A
N668        C669   1.360       .  A
C669        N670   1.358       .  A
C669        C699   1.469       .  S
C671        N672   1.360       .  A
C671        N676   1.360       .  A
C671       C1037   1.501       .  S
N672        C673   1.357       .  A
C673        N674   1.360       .  A
N674        C675   1.360       .  A
C675        N676   1.357       .  A
C675        C711   1.466       .  S
O677       Ni685   1.917       .  S
O677        C687   1.281       .  A
O678       Ni685   1.913       .  S
O678        C688   1.280       .  A
O679       Ni685   1.921       .  S
O679        C689   1.282       .  A
O680       Ni685   1.921       .  S
O680        C690   1.282       .  A
O681       Ni686   1.914       .  S
O681        C690   1.281       .  A
O682       Ni686   1.920       .  S
O682        C689   1.281       .  A
O683       Ni686   1.914       .  S
O683        C688   1.280       .  A
O684       Ni686   1.914       .  S
O684        C687   1.280       .  A
Ni685      Ni686   2.390       .  S
C687        C876   1.479       .  S
C688        C953   1.480   1_455  S
C689        C932   1.485       .  S
C690        C904   1.488   1_455  S
C691        N692   1.359       .  A
C691        N696   1.358   1_565  A
C691        C869   1.485       .  S
N692        C693   1.357   1_565  A
C693        N694   1.359       .  A
N694        C695   1.359       .  A
C695        N696   1.356       .  A
C697        N698   1.361       .  A
C697        N702   1.360       .  A
C697        C925   1.502       .  S
N698        C699   1.358       .  A
C699        N700   1.361       .  A
N700        C701   1.360       .  A
C701        N702   1.357       .  A
C703        N704   1.359       .  A
C703        N708   1.361   1_565  A
C703        C897   1.503       .  S
N704        C705   1.355   1_565  A
C705        N706   1.358       .  A
N706        C707   1.359       .  A
C707        N708   1.358       .  A
C707        C745   1.464       .  S
C709        N710   1.359       .  A
C709        N714   1.360       .  A
C709        C960   1.484       .  S
N710        C711   1.357       .  A
C711        N712   1.359       .  A
N712        C713   1.360       .  A
C713        N714   1.358       .  A
O715       Ni723   1.915       .  S
O715        C725   1.280       .  A
O716       Ni723   1.916       .  S
O716        C726   1.281       .  A
O717       Ni723   1.917       .  S
O717        C727   1.281       .  A
O718       Ni723   1.913       .  S
O718        C728   1.281       .  A
O719       Ni724   1.912       .  S
O719        C728   1.280       .  A
O720       Ni724   1.916       .  S
O720        C727   1.281       .  A
O721       Ni724   1.917       .  S
O721        C726   1.281       .  A
O722       Ni724   1.916       .  S
O722        C725   1.281       .  A
Ni723      Ni724   2.392       .  S
C725        C848   1.478   1_455  S
C726        C792   1.479       .  S
C727        C757   1.482       .  S
C728        C813   1.481   1_455  S
C729        N730   1.359       .  A
C729        N734   1.361       .  A
C729        C764   1.486       .  S
N730        C731   1.356       .  A
C731        N732   1.358       .  A
N732        C733   1.359       .  A
C733        N734   1.359       .  A
C735        N736   1.361       .  A
C735        N740   1.359       .  A
C735        C785   1.498       .  S
N736        C737   1.358       .  A
C737        N738   1.358       .  A
N738        C739   1.358   1_556  A
C739        N740   1.356   1_554  A
C741        N742   1.359       .  A
C741        C820   1.481       .  S
N742        C743   1.357       .  A
C743        N744   1.359       .  A
C745        N746   1.357       .  A
C747        N748   1.359       .  A
C747        N752   1.360       .  A
C747        C841   1.498       .  S
N748        C749   1.356       .  A
C749        N750   1.360       .  A
N750        C751   1.360       .  A
C751        N752   1.358       .  A
C753        C754   1.411       .  A
C753        C758   1.410       .  A
C753        C771   1.450       .  S
C754        C759   1.496       .  S
C754        C755   1.411       .  A
C755        C756   1.410       .  A
C756        C757   1.414       .  A
C757        C758   1.413       .  A
C758        C761   1.452       .  S
C759        C762   1.410       .  A
C759        C766   1.411       .  A
C760        N777   1.157       .  T
C761        N779   1.157       .  T
C762        C763   1.411       .  A
C762        C767   1.450       .  S
C763        C764   1.415       .  A
C763        C769   1.451       .  S
C764        C765   1.414       .  A
C765        C766   1.412       .  A
C767        N774   1.157       .  T
C768        N775   1.158       .  T
C769        N773   1.157       .  T
C770        N776   1.157       .  T
C771        N780   1.157       .  T
C772        N778   1.157       .  T
C781        C782   1.411       .  A
C781        C786   1.412       .  A
C781        C799   1.452       .  S
C782        C787   1.499       .  S
C782        C783   1.410   1_556  A
C783        C784   1.411       .  A
C784        C785   1.421   1_554  A
C785        C786   1.420       .  A
C786        C789   1.452       .  S
C787        C790   1.413       .  A
C787        C794   1.414       .  A
C788        N805   1.157       .  T
C789        N807   1.157       .  T
C790        C791   1.410       .  A
C790        C795   1.451       .  S
C791        C792   1.412       .  A
C791        C797   1.451       .  S
C792        C793   1.411       .  A
C793        C794   1.410       .  A
C793        C796   1.451       .  S
C794        C798   1.451       .  S
C795        N802   1.157       .  T
C796        N803   1.157   1_556  T
C797        N801   1.157       .  T
C798        N804   1.157   1_556  T
C799        N808   1.157       .  T
C800        N806   1.158       .  T
C809        C810   1.411       .  A
C809        C814   1.409       .  A
C809        C827   1.451       .  S
C810        C815   1.494       .  S
C810        C811   1.411       .  A
C811        C812   1.409       .  A
C812        C813   1.414       .  A
C813        C814   1.414       .  A
C814        C817   1.452       .  S
C815        C818   1.411       .  A
C815        C822   1.411       .  A
C816        N833   1.157       .  T
C817        N835   1.157       .  T
C818        C819   1.410       .  A
C818        C823   1.451       .  S
C819        C820   1.413       .  A
C819        C825   1.451       .  S
C820        C821   1.413       .  A
C821        C822   1.409       .  A
C823        N830   1.157       .  T
C824        N831   1.157       .  T
C825        N829   1.157       .  T
C826        N832   1.157       .  T
C827        N836   1.157       .  T
C828        N834   1.158       .  T
C837        C838   1.411       .  A
C837        C842   1.412       .  A
C838        C843   1.498       .  S
C838        C839   1.410       .  A
C839        C840   1.410       .  A
C839        C844   1.452       .  S
C840        C841   1.421       .  A
C840        C856   1.452       .  S
C841        C842   1.420       .  A
C843        C846   1.414       .  A
C843        C850   1.413       .  A
C844        N861   1.157       .  T
C845        N863   1.157       .  T
C846        C847   1.411       .  A
C846        C851   1.451       .  S
C847        C848   1.412       .  A
C847        C853   1.452       .  S
C848        C849   1.411       .  A
C849        C850   1.408       .  A
C849        C852   1.451   1_655  S
C850        C854   1.451       .  S
C851        N858   1.157       .  T
C852        N859   1.157       .  T
C853        N857   1.157   1_556  T
C854        N860   1.157       .  T
C855        N864   1.157       .  T
C856        N862   1.157       .  T
C865        C866   1.410       .  A
C865        C870   1.410       .  A
C865        C883   1.451       .  S
C866        C871   1.494       .  S
C866        C867   1.411       .  A
C867        C868   1.410       .  A
C868        C869   1.415       .  A
C869        C870   1.415       .  A
C870        C873   1.452       .  S
C871        C874   1.412       .  A
C871        C878   1.411       .  A
C872        N889   1.157       .  T
C873        N891   1.157       .  T
C874        C875   1.410       .  A
C874        C879   1.451       .  S
C875        C876   1.413       .  A
C875        C881   1.452       .  S
C876        C877   1.412       .  A
C877        C878   1.409       .  A
C877        C880   1.451       .  S
C878        C882   1.451       .  S
C879        N886   1.157       .  T
C880        N887   1.157       .  T
C881        N885   1.157       .  T
C882        N888   1.157       .  T
C883        N892   1.157       .  T
C884        N890   1.157       .  T
C893        C894   1.407       .  A
C893        C898   1.411       .  A
C893        C911   1.452       .  S
C894        C899   1.498       .  S
C894        C895   1.409       .  A
C895        C896   1.412       .  A
C895        C900   1.452       .  S
C896        C897   1.423       .  A
C896        C912   1.452       .  S
C897        C898   1.424       .  A
C898        C901   1.452       .  S
C899        C902   1.411       .  A
C899        C906   1.411       .  A
C900        N917   1.157       .  T
C902        C903   1.409       .  A
C902        C907   1.451       .  S
C903        C904   1.416       .  A
C903        C909   1.452       .  S
C904        C905   1.416       .  A
C905        C906   1.412       .  A
C905        C908   1.451   1_655  S
C906        C910   1.451       .  S
C907        N914   1.157       .  T
C908        N915   1.157       .  T
C909        N913   1.157       .  T
C910        N916   1.157       .  T
C912        N918   1.157   1_565  T
C921        C922   1.410       .  A
C921        C926   1.412       .  A
C921        C939   1.452       .  S
C922        C927   1.502       .  S
C922        C923   1.410       .  A
C923        C924   1.413       .  A
C924        C925   1.422       .  A
C925        C926   1.421       .  A
C926        C929   1.452       .  S
C927        C930   1.413       .  A
C927        C934   1.413       .  A
C928        N945   1.157       .  T
C929        N947   1.157       .  T
C930        C931   1.412       .  A
C930        C935   1.451       .  S
C931        C932   1.413       .  A
C931        C937   1.451       .  S
C932        C933   1.413       .  A
C933        C934   1.411       .  A
C933        C936   1.452       .  S
C934        C938   1.451       .  S
C935        N942   1.157       .  T
C936        N943   1.157       .  T
C937        N941   1.157       .  T
C938        N944   1.157       .  T
C939        N948   1.157       .  T
C940        N946   1.158       .  T
C949        C950   1.411       .  A
C949        C954   1.409       .  A
C949        C967   1.451       .  S
C950        C955   1.494       .  S
C950        C951   1.411       .  A
C951        C952   1.409       .  A
C952        C953   1.413       .  A
C953        C954   1.414       .  A
C954        C957   1.452       .  S
C955        C958   1.410       .  A
C955        C962   1.411       .  A
C956        N973   1.157   1_554  T
C957        N975   1.157       .  T
C958        C959   1.410       .  A
C958        C963   1.451       .  S
C959        C960   1.414       .  A
C959        C965   1.450       .  S
C960        C961   1.414       .  A
C961        C962   1.410       .  A
C961        C964   1.451       .  S
C962        C966   1.451       .  S
C963        N970   1.157       .  T
C964        N971   1.157       .  T
C965        N969   1.157       .  T
C966        N972   1.157       .  T
C967        N976   1.157       .  T
C968        N974   1.157   1_554  T
C977        C978   1.410       .  A
C977        C982   1.409       .  A
C977        C995   1.451       .  S
C978        C983   1.494       .  S
C978        C979   1.411       .  A
C979        C980   1.410       .  A
C979        C984   1.450       .  S
C980        C981   1.411       .  A
C980        C996   1.451       .  S
C981        C982   1.414       .  A
C982        C985   1.452       .  S
C983        C986   1.410       .  A
C983        C990   1.411       .  A
C984       N1001   1.157       .  T
C985       N1003   1.157       .  T
C986        C987   1.410       .  A
C986        C991   1.451       .  S
C987        C988   1.413       .  A
C987        C993   1.451       .  S
C988        C989   1.413       .  A
C989        C990   1.411       .  A
C989        C992   1.451       .  S
C990        C994   1.451       .  S
C991        N998   1.157       .  T
C992        N999   1.157   1_565  T
C993        N997   1.157       .  T
C994       N1000   1.157       .  T
C995       N1004   1.157       .  T
C996       N1002   1.157       .  T
C1005      C1006   1.411       .  A
C1005      C1010   1.410       .  A
C1005      C1023   1.452       .  S
C1006      C1011   1.497       .  S
C1006      C1007   1.411       .  A
C1007      C1008   1.411       .  A
C1007      C1012   1.451       .  S
C1008      C1009   1.417       .  A
C1008      C1024   1.451       .  S
C1009      C1010   1.416       .  A
C1010      C1013   1.451       .  S
C1011      C1014   1.412       .  A
C1011      C1018   1.413       .  A
C1012      N1029   1.157       .  T
C1013      N1031   1.157       .  T
C1014      C1015   1.409       .  A
C1014      C1019   1.451       .  S
C1015      C1016   1.413       .  A
C1015      C1021   1.452       .  S
C1016      C1017   1.411       .  A
C1017      C1018   1.410       .  A
C1017      C1020   1.452       .  S
C1018      C1022   1.451       .  S
C1019      N1026   1.157       .  T
C1020      N1027   1.157       .  T
C1021      N1025   1.157       .  T
C1022      N1028   1.157       .  T
C1023      N1032   1.157       .  T
C1024      N1030   1.157       .  T
C1033      C1034   1.411       .  A
C1033      C1038   1.411       .  A
C1033      C1051   1.452       .  S
C1034      C1039   1.503       .  S
C1034      C1035   1.411       .  A
C1035      C1036   1.413       .  A
C1035      C1040   1.451       .  S
C1036      C1037   1.421       .  A
C1036      C1052   1.452       .  S
C1037      C1038   1.421       .  A
C1038      C1041   1.452       .  S
C1039      C1042   1.414       .  A
C1039      C1046   1.413       .  A
C1040      N1057   1.157       .  T
C1041      N1059   1.158       .  T
C1042      C1043   1.412       .  A
C1042      C1047   1.451       .  S
C1043      C1044   1.412       .  A
C1043      C1049   1.451       .  S
C1044      C1045   1.414       .  A
C1045      C1046   1.411       .  A
C1045      C1048   1.452       .  S
C1046      C1050   1.451       .  S
C1047      N1054   1.157       .  T
C1048      N1055   1.157       .  T
C1049      N1053   1.157       .  T
C1050      N1056   1.157       .  T
C1051      N1060   1.157       .  T
C1052      N1058   1.157       .  T
C1061      C1062   1.410       .  A
C1061      C1066   1.411       .  A
C1061      C1079   1.450       .  S
C1062      C1067   1.495       .  S
C1062      C1063   1.410       .  A
C1063      C1064   1.409       .  A
C1063      C1068   1.451       .  S
C1064      C1065   1.416       .  A
C1064      C1080   1.452   1_565  S
C1065      C1066   1.416       .  A
C1066      C1069   1.451       .  S
C1067      C1070   1.406       .  A
C1067      C1074   1.406       .  A
C1068      N1085   1.157       .  T
C1069      N1087   1.157       .  T
C1070      C1071   1.411       .  A
C1070      C1075   1.453       .  S
C1071      C1072   1.428       .  A
C1071      C1077   1.452       .  S
C1072      C1073   1.426       .  A
C1073      C1074   1.412       .  A
C1073      C1076   1.451       .  S
C1074      C1078   1.452       .  S
C1075      N1082   1.157       .  T
C1076      N1083   1.157       .  T
C1077      N1081   1.157       .  T
C1078      N1084   1.157       .  T
C1079      N1088   1.157       .  T
C1080      N1086   1.157       .  T
C1089      C1090   1.412       .  A
C1089      C1094   1.410       .  A
C1089      C1107   1.451       .  S
C1090      C1095   1.496       .  S
C1090      C1091   1.412       .  A
C1091      C1092   1.409       .  A
C1091      C1096   1.451       .  S
C1092      C1093   1.412       .  A
C1092      C1108   1.451       .  S
C1093      C1094   1.413       .  A
C1094      C1097   1.452       .  S
C1095      C1098   1.407       .  A
C1095      C1102   1.409       .  A
C1096      N1113   1.157       .  T
C1097      N1115   1.157       .  T
C1098      C1099   1.409       .  A
C1098      C1103   1.453       .  S
C1099      C1100   1.426       .  A
C1099      C1105   1.453       .  S
C1100      C1101   1.424       .  A
C1101      C1102   1.412       .  A
C1101      C1104   1.451       .  S
C1102      C1106   1.452       .  S
C1103      N1110   1.157       .  T
C1104      N1111   1.158       .  T
C1105      N1109   1.157       .  T
C1106      N1112   1.157       .  T
C1107      N1116   1.157       .  T
C1108      N1114   1.157       .  T
C1117      C1118   1.408       .  A
C1117      C1122   1.412       .  A
C1117      C1135   1.453       .  S
C1118      C1123   1.498       .  S
C1118      C1119   1.407       .  A
C1119      C1120   1.413       .  A
C1119      C1124   1.452       .  S
C1120      C1121   1.427       .  A
C1120      C1136   1.452       .  S
C1121      C1122   1.426       .  A
C1122      C1125   1.452       .  S
C1123      C1126   1.412       .  A
C1123      C1130   1.412       .  A
C1124      N1141   1.157       .  T
C1125      N1143   1.157       .  T
C1126      C1127   1.410       .  A
C1126      C1131   1.450       .  S
C1127      C1128   1.413       .  A
C1127      C1133   1.452       .  S
C1128      C1129   1.413       .  A
C1129      C1130   1.410       .  A
C1129      C1132   1.451       .  S
C1130      C1134   1.451       .  S
C1131      N1138   1.157       .  T
C1132      N1139   1.157       .  T
C1133      N1137   1.157       .  T
C1134      N1140   1.157       .  T
C1135      N1144   1.157       .  T
C1136      N1142   1.158       .  T
C1145      C1146   1.412       .  A
C1145      C1150   1.411       .  A
C1145      C1163   1.451       .  S
C1146      C1151   1.499       .  S
C1146      C1147   1.412       .  A
C1147      C1148   1.411       .  A
C1147      C1152   1.450       .  S
C1148      C1149   1.413       .  A
C1148      C1164   1.451       .  S
C1149      C1150   1.413       .  A
C1150      C1153   1.451       .  S
C1151      C1154   1.411       .  A
C1151      C1158   1.410       .  A
C1152      N1169   1.157       .  T
C1153      N1171   1.157       .  T
C1154      C1155   1.412       .  A
C1154      C1159   1.451       .  S
C1155      C1156   1.418       .  A
C1155      C1161   1.452       .  S
C1156      C1157   1.418       .  A
C1157      C1158   1.411       .  A
C1157      C1160   1.451       .  S
C1158      C1162   1.451       .  S
C1159      N1166   1.157       .  T
C1160      N1167   1.157       .  T
C1161      N1165   1.157       .  T
C1162      N1168   1.157       .  T
C1163      N1172   1.157       .  T
C1164      N1170   1.157       .  T
C1173      C1174   1.412       .  A
C1173      C1178   1.411       .  A
C1173      C1191   1.450       .  S
C1174      C1179   1.496       .  S
C1174      C1175   1.411       .  A
C1175      C1176   1.410       .  A
C1175      C1180   1.450       .  S
C1176      C1177   1.412       .  A
C1176      C1192   1.451       .  S
C1177      C1178   1.412       .  A
C1178      C1181   1.451       .  S
C1179      C1182   1.410       .  A
C1179      C1186   1.411       .  A
C1180      N1197   1.157       .  T
C1181      N1199   1.157       .  T
C1182      C1183   1.410       .  A
C1182      C1187   1.451       .  S
C1183      C1184   1.415       .  A
C1183      C1189   1.452       .  S
C1184      C1185   1.415       .  A
C1185      C1186   1.411       .  A
C1185      C1188   1.451       .  S
C1186      C1190   1.451       .  S
C1187      N1194   1.157       .  T
C1188      N1195   1.157       .  T
C1189      N1193   1.157       .  T
C1190      N1196   1.157       .  T
C1191      N1200   1.157       .  T
C1192      N1198   1.157       .  T
