geometry optimzed in LAMMPS
_audit_creation_date              2020-11-30 
_audit_creation_method            'lammps2cif' 
_symmetry_space_group_name_H-M    'P1' 
_symmetry_Int_Tables_number       1 
_symmetry_cell_setting            triclinic 
loop_ 
_symmetry_equiv_pos_as_xyz 
  x,y,z 
_cell_length_a                    31.51448193 
_cell_length_b                    25.21183008618425 
_cell_length_c                    50.85340402635933 
_cell_angle_alpha                 90.33254761083298 
_cell_angle_beta                  90.06234091476084 
_cell_angle_gamma                 93.23280334815149 
loop_ 
_atom_site_label 
_atom_site_type_symbol 
_atom_site_fract_x 
_atom_site_fract_y 
_atom_site_fract_z 
_atom_site_charge 
C1          C  0.17254389  0.50425577  0.22028726     0.85700
C2          C  0.16853177  0.55078017  0.20087439    -0.54500
C3          C  0.13173555  0.54923692  0.18637859     0.08600
C4          C  0.10207684  0.49992069  0.19225755     0.19600
C5          C  0.13103480  0.50457232  0.23673707    -0.55200
C6          C  0.09404216  0.50301229  0.22208875     0.08700
C7          C  0.16678951  0.45561067  0.20202004    -0.54800
C8          C  0.13008305  0.45232647  0.18786791     0.09300
H9          H  0.19314331  0.58186397  0.19783623     0.13800
H10         H  0.07212736  0.49772945  0.18079825    -0.00400
H11         H  0.13112882  0.50707487  0.25804977     0.14100
H12         H  0.19130393  0.42769453  0.19887129     0.13900
C13         C  0.42300385  0.51232902  0.27025454     0.85700
C14         C  0.41866574  0.46124618  0.28650703    -0.54500
C15         C  0.38251749  0.45470345  0.30120763     0.08600
C16         C  0.35249409  0.50069159  0.29790563     0.19600
C17         C  0.38165479  0.51229726  0.25365876    -0.55200
C18         C  0.34475242  0.50584673  0.26798737     0.08700
C19         C  0.41674270  0.55687944  0.29083231    -0.54800
C20         C  0.38015015  0.55090937  0.30531869     0.09300
H21         H  0.44371289  0.43337792  0.28728644     0.13800
H22         H  0.32265328  0.49641255  0.30940210    -0.00400
H23         H  0.38157587  0.51768872  0.23250379     0.14100
H24         H  0.43817209  0.59122560  0.29394613     0.13900
In25       In  0.36041028  0.78797419  0.42221022     1.36900
C26         C  0.36347986  0.88565982  0.40187542     0.76800
O27         O  0.29686556  0.81037598  0.43644617    -0.61600
O28         O  0.32705088  0.74974070  0.45664250    -0.52500
C29         C  0.35757498  0.71462423  0.38372792     0.69500
O30         O  0.38209476  0.75579978  0.38341737    -0.47400
C31         C  0.42325844  0.78291089  0.45706530     0.74200
O32         O  0.39529038  0.86478844  0.41163539    -0.59300
O33         O  0.42069396  0.75352249  0.43687585    -0.49400
O34         O  0.33030236  0.85518593  0.40132344    -0.55700
C35         C  0.29668081  0.78015919  0.45609857     0.84400
O36         O  0.33439777  0.71073195  0.40386050    -0.57600
O37         O  0.39488551  0.81595767  0.45847219    -0.60900
In38       In  0.11801690  0.79401494  0.07429944     1.36900
C39         C  0.12123128  0.89342672  0.09303373     0.76800
O40         O  0.15634684  0.82598214  0.04033097    -0.61600
O41         O  0.17398419  0.75357056  0.05669899    -0.52500
C42         C  0.11353498  0.72272607  0.11341604     0.69500
O43         O  0.14042195  0.76157259  0.11302636    -0.47400
C44         C  0.05204586  0.78110056  0.04160243     0.74200
O45         O  0.08704566  0.86722894  0.08776257    -0.59300
O46         O  0.08501400  0.75526300  0.03948643    -0.49400
O47         O  0.15394359  0.86720680  0.09037523    -0.55700
C48         C  0.18046376  0.78793749  0.03900249     0.84400
O49         O  0.08848859  0.72116086  0.09413905    -0.57600
O50         O  0.05219130  0.81146679  0.06139275    -0.60900
In51       In  0.37034823  0.21070740  0.41589467     1.36900
C52         C  0.36381774  0.11228408  0.39610674     0.76800
O53         O  0.43657877  0.19389723  0.42812421    -0.61600
O54         O  0.40034753  0.24024877  0.45343905    -0.52500
C55         C  0.37580158  0.28680827  0.37945808     0.69500
O56         O  0.34906044  0.24775485  0.37813151    -0.47400
C57         C  0.30733918  0.21573633  0.44980210     0.74200
O58         O  0.39823264  0.14042276  0.39652574    -0.59300
O59         O  0.33211484  0.17831277  0.44900638    -0.49400
O60         O  0.33216450  0.13649442  0.40374539    -0.55700
C61         C  0.43425456  0.21700338  0.45008696     0.84400
O62         O  0.39939952  0.28647847  0.39937090    -0.57600
O63         O  0.31390925  0.25054322  0.43228290    -0.60900
In64       In  0.11668595  0.21655041  0.06673678     1.36900
C65         C  0.12344554  0.12044358  0.08779154     0.76800
O66         O  0.04981533  0.19537326  0.05387627    -0.61600
O67         O  0.08195376  0.26107137  0.03573937    -0.52500
C68         C  0.11978327  0.29309795  0.10438116     0.69500
O69         O  0.10103174  0.24812872  0.10742626    -0.47400
C70         C  0.17652675  0.20850089  0.02990887     0.74200
O71         O  0.08839599  0.13961968  0.08242931    -0.59300
O72         O  0.14046853  0.18441925  0.02847310    -0.49400
O73         O  0.15514333  0.15244908  0.08425304    -0.55700
C74         C  0.04913213  0.23025659  0.03629454     0.84400
O75         O  0.13626728  0.29873509  0.08200856    -0.57600
O76         O  0.18205373  0.23642448  0.05046375    -0.60900
C77         C  0.46700879  0.21543608  0.47098626    -0.06900
C78         C  0.46043046  0.24353110  0.49451248    -0.18000
C79         C  0.00740741  0.27495032  0.00033565     0.10300
C80         C  0.01454778  0.23079714  0.01651845    -0.06800
C81         C  0.02640096  0.17808050  0.49162436    -0.18100
C82         C  0.50274303  0.18402548  0.46913056     0.10300
S83         S  0.03388536  0.33943473  0.00530536    -0.33000
S84         S  0.51347440  0.14299954  0.44106654    -0.33000
H85         H  0.47434172  0.11342437  0.44296731     0.28300
H86         H  0.03204064  0.33718524  0.03292539     0.28300
H87         H  0.43270845  0.26671351  0.49666721     0.18900
H88         H  0.99557954  0.14863483  0.02413312     0.18900
C89         C  0.20875856  0.20516127  0.00872853    -0.06900
C90         C  0.22682916  0.26308898  0.49905569    -0.18000
C91         C  0.25625498  0.26497647  0.47838172     0.10300
C92         C  0.27426517  0.21751227  0.47018314    -0.06800
C93         C  0.26229078  0.16962207  0.48281937    -0.18100
C94         C  0.25241538  0.21812616  0.01297391     0.10300
S95         S  0.27182784  0.32840397  0.46386907    -0.33000
S96         S  0.27488621  0.23153914  0.04509067    -0.33000
H97         H  0.25093128  0.18987793  0.05736697     0.28300
H98         H  0.24473051  0.35932205  0.47874465     0.30700
H99         H  0.21305683  0.29920061  0.50569797     0.18900
H100        H  0.27548953  0.13285749  0.47650853     0.18900
C101        C  0.12322020  0.95138079  0.09900725    -0.06900
C102        C  0.16203490  0.98059267  0.09521678    -0.18000
C103        C  0.16410984  0.03635491  0.09357738     0.10300
C104        C  0.12621392  0.06382495  0.09557054    -0.06800
C105        C  0.08826889  0.03481918  0.10201575    -0.18100
C106        C  0.08646609  0.97942596  0.10417080     0.10300
S107        S  0.21486190  0.07062656  0.08684809    -0.33000
S108        S  0.03593397  0.94719621  0.11284615    -0.33000
H109        H  0.05372871  0.90779621  0.12819456     0.28300
H110        H  0.23996329  0.02648995  0.08918740     0.28300
H111        H  0.19046982  0.95947537  0.09170619     0.18900
H112        H  0.05920977  0.05529233  0.10455847     0.18900
C113        C  0.36214246  0.05435294  0.39010898    -0.06900
C114        C  0.40081580  0.02930551  0.38927133    -0.18000
C115        C  0.40223182  0.97392574  0.39080402     0.10300
C116        C  0.36400969  0.94236830  0.39383048    -0.06800
C117        C  0.32516443  0.96692071  0.39175751    -0.18100
C118        C  0.32379834  0.02222166  0.38948039     0.10300
S119        S  0.45337180  0.94498791  0.38960638    -0.33000
S120        S  0.27216759  0.04897102  0.38655042    -0.33000
H121        H  0.28583566  0.08934821  0.36898752     0.28300
H122        H  0.47656760  0.99030899  0.38023129     0.28300
H123        H  0.43039145  0.05332895  0.38905737     0.18900
H124        H  0.29548770  0.94316811  0.39300556     0.18900
C125        C  0.26500014  0.78154150  0.47752568    -0.06900
C126        C  0.26312863  0.74014737  0.49597635    -0.18000
C127        C  0.24836241  0.75450933  0.01904721     0.10300
C128        C  0.21116266  0.78301914  0.01715052    -0.06800
C129        C  0.20973252  0.82359549  0.50194903    -0.18100
C130        C  0.23836339  0.82436908  0.48104812     0.10300
S131        S  0.26610912  0.72659900  0.04941492    -0.33000
S132        S  0.23955298  0.88198705  0.46017385    -0.33000
H133        H  0.28365727  0.89257844  0.46306976     0.28300
H134        H  0.25421036  0.76926452  0.06521717     0.28300
H135        H  0.28405253  0.70767948  0.49399306     0.18900
H136        H  0.17226605  0.82689525  0.99123762     0.18900
C137        C  0.45524711  0.77854679  0.47819416    -0.06900
C138        C  0.44537251  0.79784375  0.50332400    -0.18000
C139        C  0.97893111  0.80315319  0.02456329     0.10300
C140        C  0.01767140  0.77791655  0.02151001    -0.06800
C141        C  0.01485183  0.74290966  0.49698966    -0.18100
C142        C  0.49465128  0.75563934  0.47437185     0.10300
S143        S  0.96500442  0.83511953  0.05507097    -0.33000
S144        S  0.51178502  0.73140299  0.44297677    -0.33000
H145        H  0.49979755  0.77641521  0.42916704     0.28300
H146        H  0.92400123  0.84876458  0.04771835     0.28300
H147        H  0.41510370  0.81511017  0.50669303     0.18900
H148        H  0.05504730  0.73248241  0.99485227     0.18900
C149        C  0.37873073  0.41259954  0.32191171    -0.06900
C150        C  0.41451866  0.40508856  0.33777597    -0.18000
C151        C  0.41485357  0.36446625  0.35637288     0.10300
C152        C  0.37834229  0.32989398  0.35966395    -0.06800
C153        C  0.34227713  0.33796441  0.34431952    -0.18100
C154        C  0.34172516  0.37932544  0.32595337     0.10300
S155        S  0.46344442  0.35834542  0.37456068    -0.33000
S156        S  0.29352978  0.38808374  0.30799208    -0.33000
H157        H  0.26745105  0.34993958  0.32129252     0.28300
H158        H  0.46415406  0.30311631  0.37056733     0.28300
H159        H  0.44285558  0.43108203  0.33555825     0.18900
H160        H  0.31405198  0.31209951  0.34705842     0.18900
C161        C  0.36854527  0.59163852  0.32522496    -0.06900
C162        C  0.37309616  0.64546665  0.31812504    -0.18000
C163        C  0.36706086  0.68618582  0.33631653     0.10300
C164        C  0.35725075  0.67351077  0.36270634    -0.06800
C165        C  0.35013501  0.61987834  0.36957730    -0.18100
C166        C  0.35560926  0.57880026  0.35121065     0.10300
S167        S  0.37142091  0.75348526  0.32441250    -0.33000
S168        S  0.34934112  0.51079949  0.36208586    -0.33000
H169        H  0.33455337  0.52132263  0.38757119     0.28300
H170        H  0.33900757  0.77164656  0.34060469     0.28300
H171        H  0.38155932  0.65600530  0.29809627     0.18900
H172        H  0.34230993  0.61013647  0.38977299     0.18900
C173        C  0.12414494  0.41232617  0.16642845    -0.06900
C174        C  0.14810647  0.42069204  0.14348175    -0.18000
C175        C  0.14743341  0.38315986  0.12307592     0.10300
C176        C  0.12204373  0.33510896  0.12533858    -0.06800
C177        C  0.09816850  0.32673553  0.14853409    -0.18100
C178        C  0.09933650  0.36425492  0.16913918     0.10300
S179        S  0.18080679  0.39908989  0.09518769    -0.33000
S180        S  0.06935471  0.34716790  0.19841433    -0.33000
H181        H  0.09080851  0.38261140  0.21591641     0.28300
H182        H  0.20241721  0.35187511  0.09692325     0.28300
H183        H  0.16825315  0.45679153  0.14164038     0.18900
H184        H  0.07879859  0.29019267  0.15088009     0.18900
C185        C  0.11290810  0.68048907  0.13365108    -0.06900
C186        C  0.09909297  0.62873476  0.12609696    -0.18000
C187        C  0.10364428  0.58510968  0.14274611     0.10300
C188        C  0.12203333  0.59336494  0.16801751    -0.06800
C189        C  0.13333933  0.64586938  0.17604194    -0.18100
C190        C  0.12887115  0.68914952  0.15934490     0.10300
S191        S  0.08902600  0.51963141  0.13005517    -0.33000
S192        S  0.14345976  0.75437004  0.17225460    -0.33000
H193        H  0.11054520  0.77945319  0.15940059     0.28300
H194        H  0.07167074  0.53506011  0.10598002     0.28300
H195        H  0.08673248  0.62210995  0.10641819     0.18900
H196        H  0.14588987  0.65343524  0.19563216     0.18900
C197        C  0.04986037  0.50803349  0.23314232    -0.06900
C198        C  0.01656263  0.47214207  0.22505088    -0.18000
C199        C  0.47451831  0.47488402  0.23546868     0.10300
C200        C  0.46584162  0.51440515  0.25459519    -0.06800
C201        C  0.49971429  0.55195864  0.26077080    -0.18100
C202        C  0.03963282  0.55013314  0.24995230     0.10300
S203        S  0.43409361  0.42507554  0.22538781    -0.33000
S204        S  0.07951224  0.60161797  0.25876651    -0.33000
H205        H  0.05290646  0.63447309  0.27289934     0.28300
H206        H  0.45754342  0.40127080  0.20545885     0.28300
H207        H  0.02368837  0.44117051  0.21121833     0.18900
H208        H  0.49558132  0.58306285  0.27479171     0.18900
C209        C  0.21518837  0.50540452  0.23626037    -0.06900
C210        C  0.24059262  0.55338075  0.23933284    -0.18000
C211        C  0.28272663  0.55443061  0.24913647     0.10300
C212        C  0.30094715  0.50677183  0.25620374    -0.06800
C213        C  0.27581948  0.45941759  0.25395305    -0.18100
C214        C  0.23298887  0.45843093  0.24594717     0.10300
S215        S  0.31348951  0.61678416  0.25228454    -0.33000
S216        S  0.20321522  0.39565504  0.24985719    -0.33000
H217        H  0.16427490  0.41757898  0.25539004     0.28300
H218        H  0.28163269  0.64963848  0.24379263     0.28300
H219        H  0.22757381  0.59070185  0.23441148     0.18900
H220        H  0.28967983  0.42247796  0.25864293     0.18900
C221        C  0.18415314  0.49598898  0.71698632     0.85700
C222        C  0.17812363  0.54222316  0.69763144    -0.54500
C223        C  0.14018020  0.53980714  0.68426212     0.08600
C224        C  0.11145518  0.49045974  0.69132357     0.19600
C225        C  0.14420829  0.49588392  0.73476880    -0.55200
C226        C  0.10604603  0.49392046  0.72138350     0.08700
C227        C  0.17736717  0.44720433  0.69901800    -0.54800
C228        C  0.13952024  0.44338030  0.68611471     0.09300
H229        H  0.20224194  0.57349869  0.69373919     0.13800
H230        H  0.08060854  0.48773233  0.68080679    -0.00400
H231        H  0.14618231  0.49835401  0.75604918     0.14100
H232        H  0.20196393  0.41983633  0.69496229     0.13900
C233        C  0.43548942  0.50412418  0.76632537     0.85700
C234        C  0.42839987  0.45310755  0.78259380    -0.54500
C235        C  0.39115019  0.44835455  0.79663045     0.08600
C236        C  0.36358355  0.49667745  0.79270642     0.19600
C237        C  0.39512681  0.50524648  0.74891594    -0.55200
C238        C  0.35748882  0.50164757  0.76269012     0.08700
C239        C  0.42971269  0.54915469  0.78672472    -0.54800
C240        C  0.39253622  0.54527665  0.80036348     0.09300
H241        H  0.45194657  0.42332268  0.78314098     0.13800
H242        H  0.33351851  0.49577672  0.80389933    -0.00400
H243        H  0.39623029  0.50881811  0.72766336     0.14100
H244        H  0.45216772  0.58212275  0.79086451     0.13900
In245      In  0.36085613  0.77968185  0.91750456     1.36900
C246        C  0.36500400  0.87665055  0.89688226     0.76800
O247        O  0.29713202  0.80269228  0.93199739    -0.61600
O248        O  0.32565457  0.73934525  0.95098855    -0.52500
C249        C  0.36228059  0.70900565  0.87760471     0.69500
O250        O  0.38615077  0.75063523  0.87864206    -0.47400
C251        C  0.42266302  0.77856479  0.95358964     0.74200
O252        O  0.39702360  0.85348174  0.90474831    -0.59300
O253        O  0.41824022  0.74374318  0.93570631    -0.49400
O254        O  0.33063052  0.84840944  0.89815150    -0.55700
C255        C  0.29570082  0.77047532  0.95089498     0.84400
O256        O  0.33705578  0.70380809  0.89674398    -0.57600
O257        O  0.39639661  0.81419482  0.95235701    -0.60900
In258      In  0.10878671  0.78482477  0.57364304     1.36900
C259        C  0.11001359  0.88333999  0.59355827     0.76800
O260        O  0.15396470  0.82365948  0.54507997    -0.61600
O261        O  0.16040298  0.74231691  0.55325943    -0.52500
C262        C  0.11116188  0.71082970  0.61129054     0.69500
O263        O  0.13423619  0.75313793  0.61137926    -0.47400
C264        C  0.04439006  0.77576388  0.53963122     0.74200
O265        O  0.07621480  0.85649196  0.58799709    -0.59300
O266        O  0.08117913  0.76186889  0.53441848    -0.49400
O267        O  0.14307846  0.85799202  0.59066338    -0.55700
C268        C  0.17358992  0.78250017  0.54034937     0.84400
O269        O  0.08584812  0.70685965  0.59213112    -0.57600
O270        O  0.03968429  0.79104662  0.56308036    -0.60900
In271      In  0.36340989  0.20195272  0.91049622     1.36900
C272        C  0.36343060  0.10316369  0.89108755     0.76800
O273        O  0.40829979  0.16905236  0.93944055    -0.61600
O274        O  0.41093536  0.25245328  0.93416488    -0.52500
C275        C  0.36897596  0.27591192  0.87271426     0.69500
O276        O  0.33610958  0.26761132  0.88646793    -0.47400
C277        C  0.29956938  0.20647023  0.94501169     0.74200
O278        O  0.39683786  0.13271401  0.89375387    -0.59300
O279        O  0.33528013  0.23055664  0.94803979    -0.49400
O280        O  0.32992875  0.12584186  0.89656366    -0.55700
C281        C  0.42391352  0.21375697  0.94691827     0.84400
O282        O  0.39725801  0.24383976  0.87699103    -0.57600
O283        O  0.29543415  0.18228014  0.92328834    -0.60900
In284      In  0.12270705  0.20655922  0.56792090     1.36900
C285        C  0.12080419  0.11036743  0.58986504     0.76800
O286        O  0.08380146  0.17260629  0.53424395    -0.61600
O287        O  0.06624594  0.24478711  0.55122692    -0.52500
C288        C  0.12680315  0.28377529  0.60414324     0.69500
O289        O  0.09773607  0.24740843  0.60365168    -0.47400
C290        C  0.18438539  0.21538314  0.53314657     0.74200
O291        O  0.08779002  0.13392356  0.58410015    -0.59300
O292        O  0.15276829  0.24369616  0.53234017    -0.49400
O293        O  0.15476692  0.13801174  0.58612670    -0.55700
C294        C  0.05912223  0.21023724  0.53353916     0.84400
O295        O  0.15461807  0.27906977  0.58672044    -0.57600
O296        O  0.18616026  0.18592154  0.55301173    -0.60900
C297        C  0.45272452  0.22063170  0.96980065    -0.06900
C298        C  0.48046598  0.26614323  0.97155695    -0.18000
C299        C  0.99605865  0.25368012  0.51279950     0.10300
C300        C  0.02620563  0.21408088  0.51283095    -0.06800
C301        C  0.99080858  0.18283778  0.01188472    -0.18100
C302        C  0.45141428  0.18402211  0.99077649     0.10300
S303        S  0.99097286  0.30093371  0.53915392    -0.33000
S304        S  0.41283632  0.12864711  0.99301170    -0.33000
H305        H  0.37826484  0.15865280  0.98597337     0.28300
H306        H  0.98907746  0.26174869  0.55879180     0.28300
H307        H  0.48055307  0.29567892  0.95615358     0.18900
H308        H  0.04914248  0.14740320  0.49122964     0.18900
C309        C  0.21558331  0.21520155  0.51182527    -0.06900
C310        C  0.19504637  0.19051909  0.98320229    -0.18000
C311        C  0.22352463  0.19017848  0.96190013     0.10300
C312        C  0.26688141  0.20551740  0.96610403    -0.06800
C313        C  0.28052961  0.21911557  0.99173156    -0.18100
C314        C  0.23297834  0.16779745  0.50325119     0.10300
S315        S  0.20350824  0.17216729  0.92954073    -0.33000
S316        S  0.21781550  0.10331257  0.51660981    -0.33000
H317        H  0.17420642  0.11223557  0.51818818     0.28300
H318        H  0.16164953  0.15718731  0.93713205     0.30700
H319        H  0.16163413  0.18043826  0.97982032     0.18900
H320        H  0.31385469  0.22936985  0.99549851     0.18900
C321        C  0.11161914  0.94106816  0.60022193    -0.06900
C322        C  0.15162676  0.96857969  0.60222322    -0.18000
C323        C  0.15585148  0.02440603  0.60150890     0.10300
C324        C  0.11914589  0.05357577  0.59791908    -0.06800
C325        C  0.07910738  0.02624081  0.59889159    -0.18100
C326        C  0.07490676  0.97088669  0.60058205     0.10300
S327        S  0.20836183  0.05684452  0.60418702    -0.33000
S328        S  0.02162174  0.94130834  0.60215078    -0.33000
H329        H  0.03176106  0.90353952  0.62109179     0.28300
H330        H  0.23017017  0.01136443  0.61040178     0.28300
H331        H  0.17993505  0.94623030  0.60289717     0.18900
H332        H  0.05052455  0.04797793  0.59734262     0.18900
C333        C  0.36423523  0.04540151  0.88507579    -0.06900
C334        C  0.40313082  0.02135872  0.88766971    -0.18000
C335        C  0.40499923  0.96605412  0.88961294     0.10300
C336        C  0.36682603  0.93349054  0.88894089    -0.06800
C337        C  0.32849034  0.95726667  0.88351809    -0.18100
C338        C  0.32688232  0.01245983  0.88115781     0.10300
S339        S  0.45646254  0.93885645  0.89386947    -0.33000
S340        S  0.27603885  0.03809304  0.87369116    -0.33000
H341        H  0.29309540  0.07905108  0.85749631     0.28300
H342        H  0.47876864  0.98653420  0.90124417     0.28300
H343        H  0.43211873  0.04617691  0.88968671     0.18900
H344        H  0.29912415  0.93291742  0.88203475     0.18900
C345        C  0.26408249  0.77197934  0.97255216    -0.06900
C346        C  0.27404144  0.74899328  0.99680557    -0.18000
C347        C  0.23500858  0.73998797  0.51725533     0.10300
C348        C  0.20721178  0.78176038  0.52008849    -0.06800
C349        C  0.20098297  0.80547791  0.99288966    -0.18100
C350        C  0.22650342  0.79983505  0.97058892     0.10300
S351        S  0.23693398  0.68584272  0.54012326    -0.33000
S352        S  0.20955440  0.82731251  0.93981595    -0.33000
H353        H  0.16716644  0.83407584  0.94719629     0.28300
H354        H  0.23576985  0.71867947  0.56255800     0.28300
H355        H  0.30303276  0.72818121  0.99880312     0.18900
H356        H  0.18895953  0.85622626  0.50390690     0.18900
C357        C  0.45462274  0.77753193  0.97496212    -0.06900
C358        C  0.44387712  0.79746714  0.99982631    -0.18000
C359        C  0.97697917  0.81016247  0.52011971     0.10300
C360        C  0.01079063  0.77566394  0.51922499    -0.06800
C361        C  0.02548400  0.75173797  0.99763413    -0.18100
C362        C  0.49502566  0.75715295  0.97143732     0.10300
S363        S  0.96929428  0.85593974  0.54679190    -0.33000
S364        S  0.51352594  0.73437084  0.94005221    -0.33000
H365        H  0.49627994  0.77554182  0.92564716     0.28300
H366        H  0.01150893  0.87732665  0.54620978     0.28300
H367        H  0.41288864  0.81314705  0.00255393     0.18900
H368        H  0.04078778  0.71652954  0.49588632     0.18900
C369        C  0.38300685  0.40412597  0.81629379    -0.06900
C370        C  0.41848472  0.38561005  0.82964104    -0.18000
C371        C  0.41469528  0.34507533  0.84823622     0.10300
C372        C  0.37443974  0.32036430  0.85375785    -0.06800
C373        C  0.33863742  0.33940044  0.84135816    -0.18100
C374        C  0.34217016  0.38090834  0.82288959     0.10300
S375        S  0.46236809  0.32962429  0.86555532    -0.33000
S376        S  0.29392059  0.40143203  0.80796232    -0.33000
H377        H  0.26496617  0.36750429  0.82176792     0.28300
H378        H  0.44284892  0.32780557  0.89044689     0.28300
H379        H  0.44980070  0.40436752  0.82647511     0.18900
H380        H  0.30769386  0.32100258  0.84599641     0.18900
C381        C  0.38126403  0.58635881  0.81998674    -0.06900
C382        C  0.38270948  0.63984697  0.81225017    -0.18000
C383        C  0.37495937  0.68063841  0.83018578     0.10300
C384        C  0.36549802  0.66804696  0.85670325    -0.06800
C385        C  0.36292988  0.61449170  0.86423923    -0.18100
C386        C  0.37147039  0.57371335  0.84637932     0.10300
S387        S  0.37722643  0.74762519  0.81783472    -0.33000
S388        S  0.37369128  0.50660382  0.85821309    -0.33000
H389        H  0.36787890  0.51790640  0.88504170     0.28300
H390        H  0.34558797  0.76564443  0.83462141     0.28300
H391        H  0.39015256  0.64995108  0.79202244     0.18900
H392        H  0.35634718  0.60485528  0.88460047     0.18900
C393        C  0.13256030  0.40412554  0.66462348    -0.06900
C394        C  0.15734368  0.41121162  0.64189031    -0.18000
C395        C  0.15500483  0.37404034  0.62128349     0.10300
C396        C  0.12818012  0.32739175  0.62386670    -0.06800
C397        C  0.10251976  0.32124515  0.64635300    -0.18100
C398        C  0.10475371  0.35860607  0.66681436     0.10300
S399        S  0.18491086  0.38858629  0.59160470    -0.33000
S400        S  0.07288997  0.34386393  0.69550544    -0.33000
H401        H  0.09911900  0.37211328  0.71371253     0.28300
H402        H  0.21089984  0.43095276  0.60189360     0.28300
H403        H  0.17832308  0.44657783  0.64027099     0.18900
H404        H  0.08159501  0.28595614  0.64852790     0.18900
C405        C  0.11484002  0.66834543  0.63117112    -0.06900
C406        C  0.10203108  0.61591679  0.62418312    -0.18000
C407        C  0.10866649  0.57310104  0.64100145     0.10300
C408        C  0.12866862  0.58277650  0.66571035    -0.06800
C409        C  0.13949478  0.63568471  0.67309290    -0.18100
C410        C  0.13295166  0.67832760  0.65625514     0.10300
S411        S  0.09412163  0.50694331  0.62921780    -0.33000
S412        S  0.14668809  0.74522465  0.66759346    -0.33000
H413        H  0.16603632  0.73166926  0.69137399     0.28300
H414        H  0.06865661  0.52159772  0.60802042     0.28300
H415        H  0.08836285  0.60820133  0.60490743     0.18900
H416        H  0.15318790  0.64367654  0.69232957     0.18900
C417        C  0.06297677  0.49885031  0.73394423    -0.06900
C418        C  0.02888994  0.46366958  0.72644379    -0.18000
C419        C  0.48974089  0.46416238  0.73377613     0.10300
C420        C  0.47914370  0.50543075  0.75146455    -0.06800
C421        C  0.51147667  0.54579794  0.75640802    -0.18100
C422        C  0.05445809  0.54016619  0.75165250     0.10300
S423        S  0.45071628  0.41234300  0.72410714    -0.33000
S424        S  0.09522204  0.59110823  0.75970623    -0.33000
H425        H  0.07153102  0.61987011  0.77771886     0.28300
H426        H  0.47571659  0.38752961  0.70528112     0.28300
H427        H  0.03454867  0.43359118  0.71198243     0.18900
H428        H  0.50515746  0.58037654  0.76784845     0.18900
C429        C  0.22781168  0.49780002  0.73167758    -0.06900
C430        C  0.25231202  0.54639490  0.73443755    -0.18000
C431        C  0.29471774  0.54883220  0.74346818     0.10300
C432        C  0.31425939  0.50174704  0.75030324    -0.06800
C433        C  0.28987681  0.45368296  0.74862785    -0.18100
C434        C  0.24684829  0.45134332  0.74101540     0.10300
S435        S  0.32140728  0.61377010  0.74659152    -0.33000
S436        S  0.21843120  0.38774039  0.74528857    -0.33000
H437        H  0.17924983  0.40836483  0.75149930     0.28300
H438        H  0.36261338  0.59826877  0.74144701     0.28300
H439        H  0.23850423  0.58351214  0.72990801     0.18900
H440        H  0.30425426  0.41739506  0.75419073     0.18900
C441        C  0.67114344  0.49991201  0.21914483     0.85700
C442        C  0.66874878  0.54740466  0.20014506    -0.54500
C443        C  0.63236864  0.54764841  0.18532853     0.08600
C444        C  0.60129543  0.49926978  0.19079030     0.19600
C445        C  0.62977781  0.50113506  0.23542314    -0.55200
C446        C  0.59311332  0.50173749  0.22069641     0.08700
C447        C  0.66467586  0.45212935  0.20043801    -0.54800
C448        C  0.62819475  0.45063553  0.18612531     0.09300
H449        H  0.69425449  0.57774976  0.19786009     0.13800
H450        H  0.57150783  0.49867298  0.17916568    -0.00400
H451        H  0.62972009  0.50261834  0.25675761     0.14100
H452        H  0.68867076  0.42376906  0.19685595     0.13900
C453        C  0.92090642  0.51332814  0.26817156     0.85700
C454        C  0.91684615  0.46304917  0.28503931    -0.54500
C455        C  0.88076768  0.45675364  0.29988761     0.08600
C456        C  0.85073484  0.50265759  0.29627178     0.19600
C457        C  0.87933100  0.51137605  0.25166470    -0.55200
C458        C  0.84260700  0.50589751  0.26636763     0.08700
C459        C  0.91422736  0.55907705  0.28805794    -0.54800
C460        C  0.87815486  0.55342854  0.30285210     0.09300
H461        H  0.94170843  0.43492506  0.28557919     0.13800
H462        H  0.82122057  0.49932439  0.30810412    -0.00400
H463        H  0.87893405  0.51497297  0.23040660     0.14100
H464        H  0.93507924  0.59440339  0.29053735     0.13900
In465      In  0.85899791  0.79013481  0.42023545     1.36900
C466        C  0.86647161  0.88871156  0.40101653     0.76800
O467        O  0.79674894  0.81530751  0.43623085    -0.61600
O468        O  0.82676050  0.75329411  0.45537079    -0.52500
C469        C  0.85520661  0.71763056  0.38111406     0.69500
O470        O  0.88283683  0.75564953  0.38227598    -0.47400
C471        C  0.92159747  0.78328614  0.45512720     0.74200
O472        O  0.89744637  0.86392399  0.40919625    -0.59300
O473        O  0.91326701  0.74757305  0.43808883    -0.49400
O474        O  0.83175379  0.86098892  0.40060776    -0.55700
C475        C  0.79726415  0.78493297  0.45582907     0.84400
O476        O  0.82885385  0.71699958  0.39972418    -0.57600
O477        O  0.89910282  0.82275310  0.45328838    -0.60900
In478      In  0.60959155  0.79291785  0.07318460     1.36900
C479        C  0.60497212  0.89235645  0.09121492     0.76800
O480        O  0.66142504  0.82817443  0.04786859    -0.61600
O481        O  0.65817217  0.74474231  0.05260279    -0.52500
C482        C  0.61189408  0.72114338  0.11192108     0.69500
O483        O  0.63356117  0.76462541  0.11248649    -0.47400
C484        C  0.54661935  0.78115074  0.03792750     0.74200
O485        O  0.57297652  0.86413440  0.08365811    -0.59300
O486        O  0.58536437  0.78466826  0.03190019    -0.49400
O487        O  0.63880517  0.86797299  0.09145781    -0.55700
C488        C  0.67639185  0.78456557  0.04161093     0.84400
O489        O  0.58856106  0.71535648  0.09189091    -0.57600
O490        O  0.53976903  0.78211409  0.06240348    -0.60900
In491      In  0.86888032  0.21556215  0.41696903     1.36900
C492        C  0.86770605  0.11693667  0.39741663     0.76800
O493        O  0.93626754  0.20147216  0.42798915    -0.61600
O494        O  0.89973904  0.24451868  0.45463611    -0.52500
C495        C  0.87124573  0.29056021  0.37947894     0.69500
O496        O  0.84553780  0.25041377  0.37870306    -0.47400
C497        C  0.80555359  0.21678531  0.45141659     0.74200
O498        O  0.90112721  0.14671802  0.39913016    -0.59300
O499        O  0.82882891  0.17818245  0.44874451    -0.49400
O500        O  0.83434538  0.13956957  0.40343061    -0.55700
C501        C  0.93406461  0.22266090  0.45039971     0.84400
O502        O  0.89467792  0.29247033  0.39952312    -0.57600
O503        O  0.81355176  0.25446838  0.43560671    -0.60900
In504      In  0.60862838  0.21797914  0.06431554     1.36900
C505        C  0.60886375  0.11950380  0.08345791     0.76800
O506        O  0.54094219  0.20237112  0.05206571    -0.61600
O507        O  0.57737404  0.26211804  0.03189872    -0.52500
C508        C  0.61360276  0.29304381  0.10233848     0.69500
O509        O  0.59878266  0.24637933  0.10616971    -0.47400
C510        C  0.67054462  0.20924191  0.02929701     0.74200
O511        O  0.57527466  0.14215630  0.07805512    -0.59300
O512        O  0.63260394  0.19327649  0.02498975    -0.49400
O513        O  0.64230312  0.14854536  0.08012791    -0.55700
C514        C  0.54280855  0.23470215  0.03323225     0.84400
O515        O  0.62473328  0.30150158  0.07893664    -0.57600
O516        O  0.67708301  0.22936955  0.05186126    -0.60900
C517        C  0.96760742  0.22018521  0.47072906    -0.06900
C518        C  0.96772944  0.25662118  0.49172154    -0.18000
C519        C  0.50789394  0.27447070  0.99311518     0.10300
C520        C  0.50906593  0.23533474  0.01292871    -0.06800
C521        C  0.53116967  0.18283171  0.49018702    -0.18100
C522        C  0.99731889  0.18012881  0.47092294     0.10300
S523        S  0.53929177  0.33639405  0.99451705    -0.33000
S524        S  0.99876584  0.12873779  0.44619585    -0.33000
H525        H  0.95509257  0.11424908  0.44819562     0.28300
H526        H  0.53462872  0.34285571  0.02185857     0.28300
H527        H  0.94484709  0.28714368  0.49204770     0.18900
H528        H  0.47968046  0.16124009  0.02683249     0.18900
C529        C  0.70386617  0.20585051  0.00902536    -0.06900
C530        C  0.73277038  0.26093513  0.50588683    -0.18000
C531        C  0.76346557  0.26375767  0.48590137     0.10300
C532        C  0.77238667  0.21721003  0.47184897    -0.06800
C533        C  0.75089693  0.16884697  0.47838916    -0.18100
C534        C  0.74685781  0.19993536  0.01538668     0.10300
S535        S  0.79305779  0.32599697  0.47991571    -0.33000
S536        S  0.76502625  0.18876345  0.04841808    -0.33000
H537        H  0.72990223  0.15475007  0.05525786     0.28300
H538        H  0.77425134  0.35557618  0.49985894     0.30700
H539        H  0.72605259  0.29631078  0.51694778     0.18900
H540        H  0.75753873  0.13299089  0.46764457     0.18900
C541        C  0.60427907  0.95047744  0.09643853    -0.06900
C542        C  0.64335680  0.98006132  0.09830750    -0.18000
C543        C  0.64591294  0.03568760  0.09616716     0.10300
C544        C  0.60844414  0.06265377  0.09137691    -0.06800
C545        C  0.56910315  0.03345623  0.09218531    -0.18100
C546        C  0.56655705  0.97824309  0.09529287     0.10300
S547        S  0.69753710  0.07049414  0.09855723    -0.33000
S548        S  0.51418235  0.94591331  0.09715648    -0.33000
H549        H  0.52558237  0.90928790  0.11635452     0.28300
H550        H  0.71958184  0.02782221  0.10837821     0.28300
H551        H  0.67240734  0.95934989  0.09991063     0.18900
H552        H  0.53987339  0.05356075  0.08972685     0.18900
C553        C  0.86852537  0.05899887  0.39180889    -0.06900
C554        C  0.90658290  0.03416797  0.39646208    -0.18000
C555        C  0.90781997  0.97862657  0.39753029     0.10300
C556        C  0.86961287  0.94653776  0.39457720    -0.06800
C557        C  0.83228475  0.97139786  0.38778113    -0.18100
C558        C  0.83158020  0.02681779  0.38579013     0.10300
S559        S  0.95839105  0.95057784  0.40384198    -0.33000
S560        S  0.78263509  0.05388032  0.37539494    -0.33000
H561        H  0.80266331  0.09606398  0.36123360     0.28300
H562        H  0.98410803  0.99683764  0.39880259     0.28300
H563        H  0.93521754  0.05844810  0.40076194     0.18900
H564        H  0.80301636  0.94760412  0.38451662     0.18900
C565        C  0.76732576  0.78700083  0.47823359    -0.06900
C566        C  0.76518298  0.74446822  0.49604317    -0.18000
C567        C  0.73523686  0.73713903  0.01815615     0.10300
C568        C  0.70988825  0.78126174  0.02132594    -0.06800
C569        C  0.71514733  0.83030935  0.50477574    -0.18100
C570        C  0.74303177  0.83139955  0.48342775     0.10300
S571        S  0.73454426  0.68276961  0.04101890    -0.33000
S572        S  0.74712804  0.89167798  0.46449251    -0.33000
H573        H  0.79182627  0.89621144  0.46568424     0.28300
H574        H  0.73233325  0.71530563  0.06350250     0.28300
H575        H  0.78483465  0.71105972  0.49302405     0.18900
H576        H  0.69559605  0.85757473  0.00555340     0.18900
C577        C  0.95324841  0.77938783  0.47650093    -0.06900
C578        C  0.94859418  0.81117236  0.49901935    -0.18000
C579        C  0.47241765  0.79756327  0.02109389     0.10300
C580        C  0.51294353  0.77734091  0.01744210    -0.06800
C581        C  0.52305381  0.75315233  0.49541874    -0.18100
C582        C  0.98694117  0.74475597  0.47562128     0.10300
S583        S  0.45735332  0.82625590  0.05214802    -0.33000
S584        S  0.99749315  0.70381063  0.44750369    -0.33000
H585        H  0.99249105  0.74466234  0.42920413     0.28300
H586        H  0.41561998  0.83729561  0.04506532     0.28300
H587        H  0.92280971  0.83778483  0.50013665     0.18900
H588        H  0.55447498  0.74166602  0.98948372     0.18900
C589        C  0.87620119  0.41368333  0.32021173    -0.06900
C590        C  0.91281696  0.40167352  0.33439199    -0.18000
C591        C  0.91229444  0.36111266  0.35299317     0.10300
C592        C  0.87385062  0.33204003  0.35877091    -0.06800
C593        C  0.83698309  0.34394819  0.34494695    -0.18100
C594        C  0.83758782  0.38442382  0.32588837     0.10300
S595        S  0.96250894  0.34706834  0.36767785    -0.33000
S596        S  0.78909705  0.39600123  0.30859801    -0.33000
H597        H  0.76137407  0.36689868  0.32551550     0.28300
H598        H  0.95549358  0.29151913  0.36600286     0.28300
H599        H  0.94262176  0.42405042  0.33093233     0.18900
H600        H  0.80750746  0.32153548  0.34922358     0.18900
C601        C  0.86700163  0.59439424  0.32276922    -0.06900
C602        C  0.86927981  0.64816778  0.31536760    -0.18000
C603        C  0.86315697  0.68887044  0.33363822     0.10300
C604        C  0.85499420  0.67623131  0.36022385    -0.06800
C605        C  0.85082365  0.62256438  0.36751253    -0.18100
C606        C  0.85724638  0.58160516  0.34922386     0.10300
S607        S  0.86594155  0.75623256  0.32178196    -0.33000
S608        S  0.85751841  0.51407283  0.36073289    -0.33000
H609        H  0.84445032  0.52384452  0.38665483     0.28300
H610        H  0.83588897  0.77480620  0.33955574     0.28300
H611        H  0.87633693  0.65866849  0.29515858     0.18900
H612        H  0.84508298  0.61294760  0.38796193     0.18900
C613        C  0.62168773  0.41102565  0.16454171    -0.06900
C614        C  0.64827069  0.41638544  0.14249029    -0.18000
C615        C  0.64687992  0.37847349  0.12226019     0.10300
C616        C  0.61746068  0.33400720  0.12354133    -0.06800
C617        C  0.59146650  0.32806483  0.14595002    -0.18100
C618        C  0.59395310  0.36529605  0.16663415     0.10300
S619        S  0.68560543  0.38763058  0.09640716    -0.33000
S620        S  0.56264951  0.35038376  0.19556965    -0.33000
H621        H  0.58989273  0.37733761  0.21370123     0.28300
H622        H  0.69725903  0.33454539  0.09679913     0.28300
H623        H  0.67118121  0.45003772  0.14135605     0.18900
H624        H  0.56952612  0.29358445  0.14762918     0.18900
C625        C  0.61472841  0.67873897  0.13198030    -0.06900
C626        C  0.60247021  0.62655393  0.12434575    -0.18000
C627        C  0.60719018  0.58323731  0.14107901     0.10300
C628        C  0.62454711  0.59184248  0.16656550    -0.06800
C629        C  0.63607394  0.64443828  0.17438969    -0.18100
C630        C  0.63110784  0.68767386  0.15762310     0.10300
S631        S  0.59373080  0.51759556  0.12828039    -0.33000
S632        S  0.64518416  0.75303775  0.17050214    -0.33000
H633        H  0.60934899  0.77609354  0.15989613     0.28300
H634        H  0.57555958  0.53260544  0.10437440     0.28300
H635        H  0.59041300  0.61940339  0.10463268     0.18900
H636        H  0.64856656  0.65215137  0.19398871     0.18900
C637        C  0.54947165  0.50782660  0.23217472    -0.06900
C638        C  0.51560373  0.47260602  0.22450540    -0.18000
C639        C  0.97463314  0.47462601  0.23483498     0.10300
C640        C  0.96434047  0.51529440  0.25297451    -0.06800
C641        C  0.99777203  0.55325384  0.25945001    -0.18100
C642        C  0.54066956  0.54933489  0.24971900     0.10300
S643        S  0.93509581  0.42399050  0.22448468    -0.33000
S644        S  0.58109796  0.60083379  0.25745345    -0.33000
H645        H  0.55392857  0.63679284  0.26894031     0.28300
H646        H  0.96265124  0.39153999  0.21085130     0.28300
H647        H  0.52166524  0.44223850  0.21021067     0.18900
H648        H  0.99254213  0.58552237  0.27282790     0.18900
C649        C  0.71296947  0.50013281  0.23550727    -0.06900
C650        C  0.73446840  0.54903144  0.24221257    -0.18000
C651        C  0.77642728  0.55204166  0.25188416     0.10300
C652        C  0.79861723  0.50529608  0.25500493    -0.06800
C653        C  0.77639341  0.45636355  0.25041947    -0.18100
C654        C  0.73344386  0.45317486  0.24255999     0.10300
S655        S  0.79938896  0.61695353  0.26034239    -0.33000
S656        S  0.70599597  0.38858242  0.24528428    -0.33000
H657        H  0.66598536  0.40804894  0.25067628     0.28300
H658        H  0.84128644  0.60689469  0.25342618     0.28300
H659        H  0.71873309  0.58570653  0.23966885     0.18900
H660        H  0.79212219  0.42007004  0.25414591     0.18900
C661        C  0.68664009  0.49854876  0.71879650     0.85700
C662        C  0.68238053  0.54318259  0.69833900    -0.54500
C663        C  0.64577914  0.53932039  0.68362378     0.08600
C664        C  0.61673921  0.48998669  0.69036096     0.19600
C665        C  0.64489650  0.49949722  0.73487895    -0.55200
C666        C  0.60822794  0.49557968  0.72000163     0.08700
C667        C  0.68194480  0.44816044  0.70167264    -0.54800
C668        C  0.64544333  0.44277835  0.68743568     0.09300
H669        H  0.70623590  0.57514652  0.69519650     0.13800
H670        H  0.58707126  0.48608470  0.67860829    -0.00400
H671        H  0.64453861  0.50417805  0.75610341     0.14100
H672        H  0.70669966  0.42019504  0.69959501     0.13900
C673        C  0.93553007  0.50681982  0.77085549     0.85700
C674        C  0.92895754  0.45637508  0.78745693    -0.54500
C675        C  0.89219455  0.45189801  0.80180526     0.08600
C676        C  0.86409681  0.49973288  0.79769536     0.19600
C677        C  0.89486097  0.50761226  0.75367985    -0.55200
C678        C  0.85744992  0.50419968  0.76768224     0.08700
C679        C  0.92987190  0.55265907  0.79087321    -0.54800
C680        C  0.89295315  0.54880483  0.80498524     0.09300
H681        H  0.95274661  0.42688496  0.78824180     0.13800
H682        H  0.83399385  0.49836398  0.80888378    -0.00400
H683        H  0.89558192  0.51122015  0.73242153     0.14100
H684        H  0.95197982  0.58633758  0.79401667     0.13900
In685      In  0.86351917  0.78205357  0.92312513     1.36900
C686        C  0.86464665  0.87839893  0.90139881     0.76800
O687        O  0.79925534  0.80343714  0.93707398    -0.61600
O688        O  0.82999581  0.74475913  0.95819632    -0.52500
C689        C  0.86550668  0.71062735  0.88390485     0.69500
O690        O  0.89155901  0.75010367  0.88599726    -0.47400
C691        C  0.92628641  0.77988852  0.95828719     0.74200
O692        O  0.89701175  0.85936624  0.91147680    -0.59300
O693        O  0.92036025  0.74448004  0.94080565    -0.49400
O694        O  0.83215908  0.84674148  0.90122670    -0.55700
C695        C  0.79925784  0.77456278  0.95719352     0.84400
O696        O  0.83825868  0.70727030  0.90204622    -0.57600
O697        O  0.90098937  0.81671068  0.95703198    -0.60900
In698      In  0.61180663  0.78609830  0.57475670     1.36900
C699        C  0.60805507  0.88349134  0.59491040     0.76800
O700        O  0.65839409  0.82729118  0.54764582    -0.61600
O701        O  0.66491032  0.74558534  0.55463991    -0.52500
C702        C  0.61414562  0.71156239  0.61202242     0.69500
O703        O  0.63419899  0.75599985  0.61360355    -0.47400
C704        C  0.54780650  0.77536376  0.54059789     0.74200
O705        O  0.57601310  0.85656353  0.58644066    -0.59300
O706        O  0.58587869  0.76857865  0.53463506    -0.49400
O707        O  0.64176876  0.85877955  0.59471426    -0.55700
C708        C  0.67827708  0.78659116  0.54241798     0.84400
O709        O  0.59185934  0.70577157  0.59154169    -0.57600
O710        O  0.54203333  0.78459338  0.56472365    -0.60900
In711      In  0.86568162  0.20324793  0.91550256     1.36900
C712        C  0.85990050  0.10406698  0.89544347     0.76800
O713        O  0.91993604  0.17371612  0.93859176    -0.61600
O714        O  0.90387277  0.25349144  0.94483949    -0.52500
C715        C  0.87446724  0.28167636  0.87965168     0.69500
O716        O  0.83892374  0.26386825  0.88808486    -0.47400
C717        C  0.80076212  0.20748776  0.94908596     0.74200
O718        O  0.89169373  0.13566434  0.89163567    -0.59300
O719        O  0.83813172  0.19894772  0.95575674    -0.49400
O720        O  0.83038826  0.12479107  0.90760502    -0.55700
C721        C  0.92650306  0.21610483  0.95166261     0.84400
O722        O  0.90508238  0.25764774  0.88874274    -0.57600
O723        O  0.79646642  0.21553443  0.92474927    -0.60900
In724      In  0.61915748  0.20452500  0.56957738     1.36900
C725        C  0.61528650  0.10977880  0.59211949     0.76800
O726        O  0.57980800  0.16953713  0.53666378    -0.61600
O727        O  0.56406384  0.24450987  0.55145556    -0.52500
C728        C  0.62764455  0.27826461  0.60760158     0.69500
O729        O  0.59536534  0.24660476  0.60571242    -0.47400
C730        C  0.68029453  0.21155185  0.53398884     0.74200
O731        O  0.58253592  0.13412301  0.58657730    -0.59300
O732        O  0.65528476  0.24824303  0.53763319    -0.49400
O733        O  0.64972029  0.13630523  0.58809041    -0.55700
C734        C  0.55637927  0.20804935  0.53474948     0.84400
O735        O  0.65575530  0.27063125  0.59067001    -0.57600
O736        O  0.67590750  0.17344629  0.54985367    -0.60900
C737        C  0.95613419  0.22055691  0.97421466    -0.06900
C738        C  0.97840227  0.26929843  0.97941364    -0.18000
C739        C  0.48787389  0.24027177  0.51599183     0.10300
C740        C  0.52426440  0.21050044  0.51369811    -0.06800
C741        C  0.47999895  0.19114117  0.01160172    -0.18100
C742        C  0.96172271  0.17731266  0.99120393     0.10300
S743        S  0.47296708  0.27177961  0.54623927    -0.33000
S744        S  0.93220053  0.11418734  0.98805869    -0.33000
H745        H  0.89303239  0.13648931  0.98326049     0.28300
H746        H  0.48412094  0.22941347  0.56228687     0.28300
H747        H  0.97355072  0.30309071  0.96690124     0.18900
H748        H  0.55885439  0.15948210  0.48823330     0.18900
C749        C  0.71143501  0.21251340  0.51242176    -0.06900
C750        C  0.69220082  0.21039770  0.98247702    -0.18000
C751        C  0.72263735  0.21128442  0.96228176     0.10300
C752        C  0.76598865  0.20716759  0.96881412    -0.06800
C753        C  0.77720424  0.20112292  0.99540500    -0.18100
C754        C  0.72017132  0.16610756  0.49816837     0.10300
S755        S  0.70526091  0.21778353  0.92861205    -0.33000
S756        S  0.69191778  0.10278330  0.50335264    -0.33000
H757        H  0.65194851  0.12414703  0.50667077     0.28300
H758        H  0.66171041  0.22154661  0.93383925     0.30700
H759        H  0.65908496  0.21448643  0.97762143     0.18900
H760        H  0.81008479  0.19676444  0.00084041     0.18900
C761        C  0.60744357  0.94079186  0.60179227    -0.06900
C762        C  0.64648570  0.96929023  0.60610570    -0.18000
C763        C  0.64975235  0.02504419  0.60557738     0.10300
C764        C  0.61313364  0.05309160  0.60000202    -0.06800
C765        C  0.57355241  0.02473633  0.59853719    -0.18100
C766        C  0.57017802  0.96935650  0.59997756     0.10300
S767        S  0.70112020  0.05899210  0.61113907    -0.33000
S768        S  0.51739012  0.93813099  0.59857607    -0.33000
H769        H  0.52570937  0.89951048  0.61748994     0.28300
H770        H  0.72354591  0.01386980  0.61704322     0.28300
H771        H  0.67500698  0.94779331  0.60841403     0.18900
H772        H  0.54493203  0.04563969  0.59522105     0.18900
C773        C  0.85913710  0.04630582  0.88912888    -0.06900
C774        C  0.89814258  0.02247866  0.88633339    -0.18000
C775        C  0.90082299  0.96713239  0.88816651     0.10300
C776        C  0.86354448  0.93464107  0.89285926    -0.06800
C777        C  0.82412427  0.95800197  0.89256054    -0.18100
C778        C  0.82145774  0.01307399  0.89052788     0.10300
S779        S  0.95210079  0.93899843  0.88503658    -0.33000
S780        S  0.76902911  0.03824040  0.89084758    -0.33000
H781        H  0.77947084  0.08061693  0.87371447     0.28300
H782        H  0.97659698  0.98726108  0.88346344     0.28300
H783        H  0.92701417  0.04754100  0.88446213     0.18900
H784        H  0.79509391  0.93352157  0.89534766     0.18900
C785        C  0.76743196  0.77726409  0.97860213    -0.06900
C786        C  0.76324210  0.73540158  0.99676901    -0.18000
C787        C  0.73868669  0.74451779  0.51810780     0.10300
C788        C  0.71195091  0.78701825  0.52208565    -0.06800
C789        C  0.71454779  0.82326553  0.00337795    -0.18100
C790        C  0.74314431  0.82223344  0.98247767     0.10300
S791        S  0.74176656  0.69008774  0.54070417    -0.33000
S792        S  0.74795205  0.88086277  0.96232386    -0.33000
H793        H  0.79250639  0.88630805  0.96464017     0.28300
H794        H  0.74121456  0.72260934  0.56328455     0.28300
H795        H  0.78237356  0.70128613  0.99453567     0.18900
H796        H  0.69568051  0.86389180  0.50781523     0.18900
C797        C  0.95865228  0.77821079  0.97939076    -0.06900
C798        C  0.95017055  0.80308732  0.00347014    -0.18000
C799        C  0.47420030  0.79661419  0.52419803     0.10300
C800        C  0.51388566  0.77421322  0.52031907    -0.06800
C801        C  0.52336251  0.75681299  0.99264019    -0.18100
C802        C  0.99684251  0.75203716  0.97660123     0.10300
S803        S  0.45910645  0.82710513  0.55461360    -0.33000
S804        S  0.01225685  0.72091398  0.94637415    -0.33000
H805        H  0.99943575  0.76231993  0.93027346     0.28300
H806        H  0.49557342  0.86191455  0.55507231     0.28300
H807        H  0.92056574  0.82238116  0.00580367     0.18900
H808        H  0.55333033  0.73597854  0.49198485     0.18900
C809        C  0.88559980  0.40901681  0.82225726    -0.06900
C810        C  0.92152960  0.39369926  0.83627299    -0.18000
C811        C  0.91893312  0.35381867  0.85533176     0.10300
C812        C  0.87938996  0.32672472  0.86073701    -0.06800
C813        C  0.84318525  0.34309927  0.84760204    -0.18100
C814        C  0.84560227  0.38395545  0.82882044     0.10300
S815        S  0.96734166  0.34113840  0.87249190    -0.33000
S816        S  0.79697929  0.40071188  0.81319516    -0.33000
H817        H  0.76968900  0.38270357  0.83354844     0.28300
H818        H  0.94860224  0.34359369  0.89755147     0.28300
H819        H  0.95221815  0.41408685  0.83296181     0.18900
H820        H  0.81264564  0.32300193  0.85168613     0.18900
C821        C  0.88210489  0.58977231  0.82495320    -0.06900
C822        C  0.88806658  0.64382007  0.81840634    -0.18000
C823        C  0.88125227  0.68408288  0.83680699     0.10300
C824        C  0.86793917  0.67055209  0.86256578    -0.06800
C825        C  0.86031323  0.61680676  0.86885125    -0.18100
C826        C  0.86812413  0.57635651  0.85064618     0.10300
S827        S  0.88963082  0.75190961  0.82606486    -0.33000
S828        S  0.86412451  0.50836951  0.86162080    -0.33000
H829        H  0.85813652  0.51884945  0.88850922     0.28300
H830        H  0.85657213  0.77158374  0.84120827     0.28300
H831        H  0.89829399  0.65484916  0.79874573     0.18900
H832        H  0.85040720  0.60647401  0.88863635     0.18900
C833        C  0.63941652  0.40006472  0.66748316    -0.06900
C834        C  0.66169142  0.40630606  0.64380247    -0.18000
C835        C  0.65766947  0.36804333  0.62373301     0.10300
C836        C  0.63210325  0.32085514  0.62786889    -0.06800
C837        C  0.61034063  0.31423960  0.65187081    -0.18100
C838        C  0.61413142  0.35295784  0.67180542     0.10300
S839        S  0.68316145  0.38205118  0.59248063    -0.33000
S840        S  0.58693433  0.33898758  0.70238546    -0.33000
H841        H  0.61434268  0.37050621  0.71862843     0.28300
H842        H  0.70243402  0.43194229  0.59926116     0.28300
H843        H  0.68165926  0.44217430  0.64089617     0.18900
H844        H  0.59093325  0.27811023  0.65536372     0.18900
C845        C  0.61826060  0.66861885  0.63159669    -0.06900
C846        C  0.60852587  0.61592499  0.62360576    -0.18000
C847        C  0.61662016  0.57281008  0.63989512     0.10300
C848        C  0.63431776  0.58243583  0.66520864    -0.06800
C849        C  0.64202250  0.63537201  0.67360105    -0.18100
C850        C  0.63433904  0.67837766  0.65722805     0.10300
S851        S  0.60698330  0.50646887  0.62694580    -0.33000
S852        S  0.64424652  0.74520950  0.66978373    -0.33000
H853        H  0.66023406  0.73158353  0.69452509     0.28300
H854        H  0.59017694  0.52024144  0.60244504     0.28300
H855        H  0.59618868  0.60843968  0.60398737     0.18900
H856        H  0.65412589  0.64305487  0.69325447     0.18900
C857        C  0.56402084  0.50025298  0.73077100    -0.06900
C858        C  0.53149550  0.46244662  0.72368125    -0.18000
C859        C  0.98780886  0.46622993  0.73737706     0.10300
C860        C  0.97902810  0.50675046  0.75591998    -0.06800
C861        C  0.01330520  0.54361477  0.76227469    -0.18100
C862        C  0.55315013  0.54348076  0.74658287     0.10300
S863        S  0.94737848  0.41604848  0.72771279    -0.33000
S864        S  0.59148469  0.59817542  0.75297348    -0.33000
H865        H  0.56851339  0.62285120  0.77285812     0.28300
H866        H  0.97358054  0.38422014  0.71268588     0.28300
H867        H  0.53911214  0.43067960  0.71047041     0.18900
H868        H  0.00920055  0.57530910  0.77594952     0.18900
C869        C  0.72863277  0.50167400  0.73522252    -0.06900
C870        C  0.75344114  0.55006649  0.73780725    -0.18000
C871        C  0.79520612  0.55232110  0.74802775     0.10300
C872        C  0.81405815  0.50502439  0.75547748    -0.06800
C873        C  0.78896267  0.45745280  0.75422998    -0.18100
C874        C  0.74617747  0.45581504  0.74620972     0.10300
S875        S  0.82161596  0.61727560  0.75207785    -0.33000
S876        S  0.71571752  0.39424364  0.75210329    -0.33000
H877        H  0.67805299  0.41813668  0.75879715     0.28300
H878        H  0.86347678  0.60200826  0.74957949     0.28300
H879        H  0.74031320  0.58707394  0.73226514     0.18900
H880        H  0.80256087  0.42105734  0.76034934     0.18900
loop_ 
_geom_bond_atom_site_label_1 
_geom_bond_atom_site_label_2 
_geom_bond_distance 
_geom_bond_site_symmetry_2 
_ccdc_geom_bond_type 
C1            C2   1.548       .  S
C1            C7   1.537       .  S
C1            C5   1.554       .  S
C1          C209   1.568       .  S
C2            H9   1.083       .  S
C2            C3   1.372       .  D
C3            C4   1.544       .  S
C3          C188   1.501       .  S
C4            C8   1.544       .  S
C4            C6   1.541       .  S
C4           H10   1.107       .  S
C5           H11   1.085       .  S
C5            C6   1.381       .  D
C6          C197   1.514       .  S
C7           H12   1.085       .  S
C7            C8   1.360       .  D
C8          C173   1.485       .  S
C13          C14   1.534       .  S
C13          C19   1.552       .  S
C13          C17   1.552       .  S
C13         C200   1.567       .  S
C14          H21   1.087       .  S
C14          C15   1.366       .  D
C15          C16   1.547       .  S
C15         C149   1.500       .  S
C16          C20   1.541       .  S
C16          C18   1.548       .  S
C16          H22   1.108       .  S
C17          H23   1.085       .  S
C17          C18   1.375       .  D
C18         C212   1.506       .  S
C19          H24   1.079       .  S
C19          C20   1.371       .  D
C20         C161   1.498       .  S
In25         O27   2.231       .  S
In25         O28   2.238       .  S
In25         O36   2.265       .  S
In25         O30   2.250       .  S
In25         O32   2.241       .  S
In25         O33   2.261       .  S
In25         O34   2.258       .  S
In25         O37   2.230       .  S
C26          O32   1.261       .  A
C26          O34   1.262       .  A
C26         C116   1.489       .  S
O27          C35   1.260       .  A
O28          C35   1.260       .  A
C29          O36   1.259       .  A
C29          O30   1.259       .  A
C29         C164   1.484       .  S
C31          O33   1.262       .  A
C31          O37   1.258       .  A
C31         C137   1.481       .  S
C35         C125   1.480       .  S
In38         O40   2.237       .  S
In38         O41   2.269       .  S
In38         O49   2.256       .  S
In38         O43   2.264       .  S
In38         O45   2.240       .  S
In38         O46   2.243       .  S
In38         O47   2.258       .  S
In38         O50   2.243       .  S
C39          O45   1.259       .  A
C39          O47   1.263       .  A
C39         C101   1.488       .  S
O40          C48   1.258       .  A
O41          C48   1.262       .  A
C42          O49   1.257       .  A
C42          O43   1.259       .  A
C42         C185   1.484       .  S
C44          O46   1.261       .  A
C44          O50   1.261       .  A
C44         C140   1.487       .  S
C48         C128   1.483       .  S
In51         O53   2.241       .  S
In51         O54   2.235       .  S
In51         O62   2.240       .  S
In51         O56   2.258       .  S
In51         O58   2.245       .  S
In51         O59   2.205       .  S
In51         O60   2.250       .  S
In51         O63   2.250       .  S
C52          O58   1.262       .  A
C52          O60   1.259       .  A
C52         C113   1.488       .  S
O53          C61   1.261       .  A
O54          C61   1.259       .  A
C55          O62   1.256       .  A
C55          O56   1.261       .  A
C55         C152   1.484       .  S
C57          O59   1.259       .  A
C57          O63   1.263       .  A
C57          C92   1.473       .  S
C61          C77   1.483       .  S
In64         O66   2.241       .  S
In64         O67   2.258       .  S
In64         O75   2.261       .  S
In64         O69   2.277       .  S
In64         O71   2.240       .  S
In64         O72   2.249       .  S
In64         O73   2.260       .  S
In64         O76   2.252       .  S
C65          O71   1.261       .  A
C65          O73   1.262       .  A
C65         C104   1.491       .  S
O66          C74   1.259       .  A
O67          C74   1.259       .  A
C68          O75   1.257       .  A
C68          O69   1.259       .  A
C68         C176   1.497       .  S
C70          O72   1.260       .  A
C70          O76   1.263       .  A
C70          C89   1.487       .  S
C74          C80   1.483       .  S
C77          C78   1.408       .  A
C77          C82   1.416       .  A
C78         C739   1.398       .  A
C78          H87   1.083       .  S
C79          C80   1.416       .  A
C79         C738   1.403   1_454  A
C79          S83   1.801       .  S
C80         C301   1.404   1_455  A
C81         C300   1.406       .  A
C81         C522   1.398   1_455  A
C81         H308   1.084       .  S
C82         C521   1.397       .  A
C82          S84   1.801       .  S
S83          H86   1.407       .  S
S84          H85   1.408       .  S
H88         C301   1.084       .  S
C89          C94   1.412       .  A
C89         C310   1.408   1_554  A
C90          C91   1.402       .  A
C90         C309   1.402       .  A
C90          H99   1.083       .  S
C91          C92   1.414       .  A
C91          S95   1.808       .  S
C92          C93   1.404       .  A
C93         C314   1.390       .  A
C93         H100   1.084       .  S
C94         C313   1.397   1_554  A
C94          S96   1.802       .  S
S95          H98   1.407       .  S
S96          H97   1.408       .  S
C101        C102   1.406       .  A
C101        C106   1.415       .  A
C102        C103   1.407   1_565  A
C102        H111   1.082       .  S
C103        C104   1.417       .  A
C103        S107   1.808       .  S
C104        C105   1.406       .  A
C105        C106   1.399   1_545  A
C105        H112   1.084       .  S
C106        S108   1.803       .  S
S107        H110   1.407       .  S
S108        H109   1.408       .  S
C113        C114   1.404       .  A
C113        C118   1.417       .  A
C114        C115   1.402   1_545  A
C114        H123   1.083       .  S
C115        C116   1.415       .  A
C115        S119   1.807       .  S
C116        C117   1.407       .  A
C117        C118   1.403   1_565  A
C117        H124   1.084       .  S
C118        S120   1.802       .  S
S119        H122   1.407       .  S
S120        H121   1.408       .  S
C125        C126   1.406       .  A
C125        C130   1.415       .  A
C126        C347   1.399       .  A
C126        H135   1.084       .  S
C127        C128   1.413       .  A
C127        C346   1.402   1_554  A
C127        S131   1.802       .  S
C128        C349   1.405   1_554  A
C129        C130   1.394       .  A
C129        C348   1.404       .  A
C129        H356   1.084       .  S
C130        S132   1.803       .  S
S131        H134   1.407       .  S
S132        H133   1.408       .  S
H136        C349   1.083       .  S
C137        C138   1.406       .  A
C137        C142   1.412       .  A
C138        C799   1.398       .  A
C138        H147   1.084       .  S
C139        C140   1.416   1_655  A
C139        C798   1.403       .  A
C139        S143   1.810       .  S
C140        C361   1.407   1_554  A
C141        C360   1.407       .  A
C141        C582   1.400   1_455  A
C141        H368   1.084       .  S
C142        C581   1.398       .  A
C142        S144   1.800       .  S
S143        H146   1.407       .  S
S144        H145   1.407       .  S
H148        C361   1.084       .  S
C149        C150   1.408       .  A
C149        C154   1.414       .  A
C150        C151   1.399       .  A
C150        H159   1.084       .  S
C151        C152   1.414       .  A
C151        S155   1.803       .  S
C152        C153   1.403       .  A
C153        C154   1.405       .  A
C153        H160   1.082       .  S
C154        S156   1.796       .  S
S155        H158   1.407       .  S
S156        H157   1.406       .  S
C161        C162   1.406       .  A
C161        C166   1.417       .  A
C162        C163   1.399       .  A
C162        H171   1.084       .  S
C163        C164   1.412       .  A
C163        S167   1.803       .  S
C164        C165   1.404       .  A
C165        C166   1.409       .  A
C165        H172   1.083       .  S
C166        S168   1.805       .  S
S167        H170   1.408       .  S
S168        H169   1.407       .  S
C173        C174   1.401       .  A
C173        C178   1.412       .  A
C174        C175   1.400       .  A
C174        H183   1.085       .  S
C175        C176   1.419       .  A
C175        S179   1.800       .  S
C176        C177   1.410       .  A
C177        C178   1.407       .  A
C177        H184   1.083       .  S
C178        S180   1.805       .  S
S179        H182   1.408       .  S
S180        H181   1.403       .  S
C185        C186   1.403       .  A
C185        C190   1.411       .  A
C186        C187   1.406       .  A
C186        H195   1.082       .  S
C187        C188   1.419       .  A
C187        S191   1.804       .  S
C188        C189   1.409       .  A
C189        C190   1.400       .  A
C189        H196   1.083       .  S
C190        S192   1.802       .  S
S191        H194   1.406       .  S
S192        H193   1.407       .  S
C197        C198   1.406       .  A
C197        C202   1.411       .  A
C198        C639   1.417   1_455  A
C198        H207   1.081       .  S
C199        C200   1.426       .  A
C199        C638   1.414       .  A
C199        S203   1.809       .  S
C200        C201   1.420       .  A
C201        C642   1.413       .  A
C201        H208   1.070       .  S
C202        C641   1.412   1_455  A
C202        S204   1.809       .  S
S203        H206   1.406       .  S
S204        H205   1.407       .  S
C209        C210   1.420       .  A
C209        C214   1.429       .  A
C210        C211   1.417       .  A
C210        H219   1.078       .  S
C211        C212   1.409       .  A
C211        S215   1.806       .  S
C212        C213   1.399       .  A
C213        C214   1.408       .  A
C213        H220   1.079       .  S
C214        S216   1.806       .  S
S215        H218   1.406       .  S
S216        H217   1.402       .  S
C221        C222   1.550       .  S
C221        C227   1.533       .  S
C221        C225   1.551       .  S
C221        C429   1.563       .  S
C222        H229   1.083       .  S
C222        C223   1.373       .  D
C223        C224   1.541       .  S
C223        C408   1.500       .  S
C224        C228   1.542       .  S
C224        C226   1.541       .  S
C224        H230   1.108       .  S
C225        H231   1.085       .  S
C225        C226   1.380       .  D
C226        C417   1.512       .  S
C227        H232   1.086       .  S
C227        C228   1.359       .  D
C228        C393   1.478       .  S
C233        C234   1.539       .  S
C233        C239   1.552       .  S
C233        C237   1.551       .  S
C233        C420   1.569       .  S
C234        H241   1.086       .  S
C234        C235   1.374       .  D
C235        C236   1.549       .  S
C235        C369   1.513       .  S
C236        C240   1.534       .  S
C236        C238   1.545       .  S
C236        H242   1.105       .  S
C237        H243   1.085       .  S
C237        C238   1.377       .  D
C238        C432   1.500       .  S
C239        H244   1.080       .  S
C239        C240   1.361       .  D
C240        C381   1.492       .  S
In245       O247   2.246       .  S
In245       O248   2.250       .  S
In245       O256   2.269       .  S
In245       O250   2.265       .  S
In245       O252   2.227       .  S
In245       O253   2.267       .  S
In245       O254   2.254       .  S
In245       O257   2.241       .  S
C246        O252   1.260       .  A
C246        O254   1.264       .  A
C246        C336   1.489       .  S
O247        C255   1.261       .  A
O248        C255   1.261       .  A
C249        O256   1.260       .  A
C249        O250   1.257       .  A
C249        C384   1.485       .  S
C251        O253   1.262       .  A
C251        O257   1.257       .  A
C251        C357   1.482       .  S
C255        C345   1.488       .  S
In258       O260   2.227       .  S
In258       O261   2.249       .  S
In258       O269   2.266       .  S
In258       O263   2.247       .  S
In258       O265   2.246       .  S
In258       O266   2.235       .  S
In258       O267   2.253       .  S
In258       O270   2.257       .  S
C259        O265   1.260       .  A
C259        O267   1.261       .  A
C259        C321   1.491       .  S
O260        C268   1.260       .  A
O261        C268   1.261       .  A
C262        O269   1.259       .  A
C262        O263   1.257       .  A
C262        C405   1.486       .  S
C264        O266   1.258       .  A
C264        O270   1.263       .  A
C264        C360   1.482       .  S
C268        C348   1.480       .  S
In271       O273   2.236       .  S
In271       O274   2.253       .  S
In271       O282   2.248       .  S
In271       O276   2.271       .  S
In271       O278   2.253       .  S
In271       O279   2.238       .  S
In271       O280   2.248       .  S
In271       O283   2.268       .  S
C272        O278   1.262       .  A
C272        O280   1.259       .  A
C272        C333   1.488       .  S
O273        C281   1.261       .  A
O274        C281   1.262       .  A
C275        O282   1.256       .  A
C275        O276   1.259       .  A
C275        C372   1.485       .  S
C277        O279   1.257       .  A
C277        O283   1.262       .  A
C277        C312   1.487       .  S
C281        C297   1.479       .  S
In284       O286   2.243       .  S
In284       O287   2.239       .  S
In284       O295   2.244       .  S
In284       O289   2.248       .  S
In284       O291   2.244       .  S
In284       O292   2.230       .  S
In284       O293   2.253       .  S
In284       O296   2.227       .  S
C285        O291   1.262       .  A
C285        O293   1.259       .  A
C285        C324   1.490       .  S
O286        C294   1.261       .  A
O287        C294   1.260       .  A
C288        O295   1.257       .  A
C288        O289   1.259       .  A
C288        C396   1.483       .  S
C290        O292   1.259       .  A
C290        O296   1.260       .  A
C290        C309   1.465       .  S
C294        C300   1.485       .  S
C297        C298   1.405       .  A
C297        C302   1.414       .  A
C298        C519   1.403       .  A
C298        H307   1.084       .  S
C299        C518   1.399       .  A
C299        C300   1.416   1_655  A
C299        S303   1.801       .  S
C301        C742   1.396   1_554  A
C302        C741   1.394   1_556  A
C302        S304   1.803       .  S
S303        H306   1.408       .  S
S304        H305   1.408       .  S
C309        C314   1.410       .  A
C310        C311   1.408       .  A
C310        H319   1.083       .  S
C311        C312   1.415       .  A
C311        S315   1.808       .  S
C312        C313   1.406       .  A
C313        H320   1.084       .  S
C314        S316   1.805       .  S
S315        H318   1.407       .  S
S316        H317   1.407       .  S
C321        C322   1.408       .  A
C321        C326   1.415       .  A
C322        C323   1.407   1_565  A
C322        H331   1.082       .  S
C323        C324   1.418       .  A
C323        S327   1.809       .  S
C324        C325   1.404       .  A
C325        C326   1.398   1_545  A
C325        H332   1.083       .  S
C326        S328   1.801       .  S
S327        H330   1.407       .  S
S328        H329   1.407       .  S
C333        C334   1.404       .  A
C333        C338   1.415       .  A
C334        C335   1.403   1_545  A
C334        H343   1.082       .  S
C335        C336   1.418       .  A
C335        S339   1.809       .  S
C336        C337   1.406       .  A
C337        C338   1.401   1_565  A
C337        H344   1.084       .  S
C338        S340   1.802       .  S
S339        H342   1.407       .  S
S340        H341   1.408       .  S
C345        C346   1.408       .  A
C345        C350   1.414       .  A
C346        H355   1.084       .  S
C347        C348   1.414       .  A
C347        S351   1.802       .  S
C349        C350   1.402       .  A
C350        S352   1.807       .  S
S351        H354   1.407       .  S
S352        H353   1.407       .  S
C357        C358   1.407       .  A
C357        C362   1.411       .  A
C358        C579   1.406   1_556  A
C358        H367   1.083   1_556  S
C359        C578   1.398       .  A
C359        C360   1.414   1_655  A
C359        S363   1.801       .  S
C361        C802   1.399   1_455  A
C362        C801   1.400       .  A
C362        S364   1.802       .  S
S363        H366   1.407   1_655  S
S364        H365   1.407       .  S
C369        C370   1.411       .  A
C369        C374   1.425       .  A
C370        C371   1.397       .  A
C370        H379   1.083       .  S
C371        C372   1.411       .  A
C371        S375   1.803       .  S
C372        C373   1.401       .  A
C373        C374   1.410       .  A
C373        H380   1.083       .  S
C374        S376   1.802       .  S
S375        H378   1.408       .  S
S376        H377   1.406       .  S
C381        C382   1.405       .  A
C381        C386   1.412       .  A
C382        C383   1.403       .  A
C382        H391   1.084       .  S
C383        C384   1.415       .  A
C383        S387   1.803       .  S
C384        C385   1.404       .  A
C385        C386   1.405       .  A
C385        H392   1.083       .  S
C386        S388   1.804       .  S
S387        H390   1.406       .  S
S388        H389   1.406       .  S
C393        C394   1.403       .  A
C393        C398   1.409       .  A
C394        C395   1.401       .  A
C394        H403   1.083       .  S
C395        C396   1.416       .  A
C395        S399   1.809       .  S
C396        C397   1.406       .  A
C397        C398   1.399       .  A
C397        H404   1.083       .  S
C398        S400   1.801       .  S
S399        H402   1.407       .  S
S400        H401   1.404       .  S
C405        C406   1.404       .  A
C405        C410   1.412       .  A
C406        C407   1.406       .  A
C406        H415   1.082       .  S
C407        C408   1.419       .  A
C407        S411   1.804       .  S
C408        C409   1.407       .  A
C409        C410   1.402       .  A
C409        H416   1.082       .  S
C410        S412   1.808       .  S
S411        H414   1.407       .  S
S412        H413   1.406       .  S
C417        C418   1.405       .  A
C417        C422   1.410       .  A
C418        C859   1.414   1_455  A
C418        H427   1.076       .  S
C419        C858   1.416       .  A
C419        C420   1.426       .  A
C419        S423   1.809       .  S
C420        C421   1.420       .  A
C421        C862   1.410       .  A
C421        H428   1.073       .  S
C422        C861   1.412       .  A
C422        S424   1.809       .  S
S423        H426   1.407       .  S
S424        H425   1.406       .  S
C429        C430   1.417       .  A
C429        C434   1.429       .  A
C430        C431   1.411       .  A
C430        H439   1.080       .  S
C431        C432   1.413       .  A
C431        S435   1.804       .  S
C432        C433   1.400       .  A
C433        C434   1.408       .  A
C433        H440   1.083       .  S
C434        S436   1.806       .  S
S435        H438   1.402       .  S
S436        H437   1.402       .  S
C441        C442   1.548       .  S
C441        C447   1.535       .  S
C441        C445   1.547       .  S
C441        C649   1.558       .  S
C442        H449   1.085       .  S
C442        C443   1.372       .  D
C443        C444   1.547       .  S
C443        C628   1.502       .  S
C444        C448   1.547       .  S
C444        C446   1.544       .  S
C444        H450   1.108       .  S
C445        H451   1.085       .  S
C445        C446   1.377       .  D
C446        C637   1.510       .  S
C447        H452   1.084       .  S
C447        C448   1.359       .  D
C448        C613   1.486       .  S
C453        C454   1.534       .  S
C453        C459   1.553       .  S
C453        C457   1.554       .  S
C453        C640   1.571       .  S
C454        H461   1.086       .  S
C454        C455   1.368       .  D
C455        C456   1.547       .  S
C455        C589   1.505       .  S
C456        C460   1.538       .  S
C456        C458   1.545       .  S
C456        H462   1.108       .  S
C457        H463   1.085       .  S
C457        C458   1.379       .  D
C458        C652   1.501       .  S
C459        H464   1.083       .  S
C459        C460   1.365       .  D
C460        C601   1.499       .  S
In465       O467   2.247       .  S
In465       O468   2.237       .  S
In465       O476   2.273       .  S
In465       O470   2.259       .  S
In465       O472   2.237       .  S
In465       O473   2.262       .  S
In465       O474   2.262       .  S
In465       O477   2.227       .  S
C466        O472   1.260       .  A
C466        O474   1.265       .  A
C466        C556   1.494       .  S
O467        C475   1.261       .  A
O468        C475   1.259       .  A
C469        O476   1.259       .  A
C469        O470   1.259       .  A
C469        C604   1.485       .  S
C471        O473   1.263       .  A
C471        O477   1.258       .  A
C471        C577   1.482       .  S
C475        C565   1.483       .  S
In478       O480   2.229       .  S
In478       O481   2.261       .  S
In478       O489   2.246       .  S
In478       O483   2.269       .  S
In478       O485   2.250       .  S
In478       O486   2.238       .  S
In478       O487   2.252       .  S
In478       O490   2.268       .  S
C479        O485   1.259       .  A
C479        O487   1.261       .  A
C479        C541   1.489       .  S
O480        C488   1.260       .  A
O481        C488   1.262       .  A
C482        O489   1.259       .  A
C482        O483   1.259       .  A
C482        C625   1.488       .  S
C484        O486   1.258       .  A
C484        O490   1.264       .  A
C484        C580   1.485       .  S
C488        C568   1.482       .  S
In491       O493   2.244       .  S
In491       O494   2.247       .  S
In491       O502   2.248       .  S
In491       O496   2.278       .  S
In491       O498   2.247       .  S
In491       O499   2.232       .  S
In491       O500   2.253       .  S
In491       O503   2.255       .  S
C492        O498   1.261       .  A
C492        O500   1.261       .  A
C492        C553   1.488       .  S
O493        C501   1.259       .  A
O494        C501   1.260       .  A
C495        O502   1.257       .  A
C495        O496   1.261       .  A
C495        C592   1.487       .  S
C497        O499   1.258       .  A
C497        O503   1.263       .  A
C497        C532   1.475       .  S
C501        C517   1.482       .  S
In504       O506   2.234       .  S
In504       O507   2.251       .  S
In504       O515   2.259       .  S
In504       O509   2.269       .  S
In504       O511   2.245       .  S
In504       O512   2.236       .  S
In504       O513   2.250       .  S
In504       O516   2.252       .  S
C505        O511   1.262       .  A
C505        O513   1.261       .  A
C505        C544   1.490       .  S
O506        C514   1.261       .  A
O507        C514   1.259       .  A
C508        O515   1.257       .  A
C508        O509   1.257       .  A
C508        C616   1.489       .  S
C510        O512   1.258       .  A
C510        O516   1.264       .  A
C510        C529   1.478       .  S
C514        C520   1.482       .  S
C517        C518   1.404       .  A
C517        C522   1.415       .  A
C518        H527   1.084       .  S
C519        C520   1.416   1_556  A
C519        S523   1.802       .  S
C520        C741   1.403       .  A
C521        C740   1.404       .  A
C521        H748   1.084       .  S
C522        S524   1.803       .  S
S523        H526   1.408   1_556  S
S524        H525   1.408       .  S
H528        C741   1.084       .  S
C529        C750   1.406   1_554  A
C529        C534   1.409       .  A
C530        C749   1.402       .  A
C530        C531   1.403       .  A
C530        H539   1.083       .  S
C531        C532   1.412       .  A
C531        S535   1.807       .  S
C532        C533   1.403       .  A
C533        C754   1.396       .  A
C533        H540   1.084       .  S
C534        C753   1.395   1_554  A
C534        S536   1.803       .  S
S535        H538   1.407       .  S
S536        H537   1.407       .  S
C541        C542   1.406       .  A
C541        C546   1.415       .  A
C542        C543   1.405   1_565  A
C542        H551   1.082       .  S
C543        C544   1.417       .  A
C543        S547   1.808       .  S
C544        C545   1.406       .  A
C545        C546   1.400   1_545  A
C545        H552   1.084       .  S
C546        S548   1.802       .  S
S547        H550   1.407       .  S
S548        H549   1.408       .  S
C553        C554   1.404       .  A
C553        C558   1.413       .  A
C554        C555   1.404   1_545  A
C554        H563   1.083       .  S
C555        C556   1.420       .  A
C555        S559   1.809       .  S
C556        C557   1.407       .  A
C557        C558   1.403   1_565  A
C557        H564   1.084       .  S
C558        S560   1.801       .  S
S559        H562   1.407       .  S
S560        H561   1.408       .  S
C565        C566   1.406       .  A
C565        C570   1.415       .  A
C566        C787   1.399       .  A
C566        H575   1.084       .  S
C567        C786   1.403   1_554  A
C567        C568   1.414       .  A
C567        S571   1.802       .  S
C568        C789   1.404       .  A
C569        C788   1.405       .  A
C569        C570   1.397       .  A
C569        H796   1.084       .  S
C570        S572   1.802       .  S
S571        H574   1.407       .  S
S572        H573   1.408       .  S
H576        C789   1.084       .  S
C577        C578   1.406       .  A
C577        C582   1.413       .  A
C578        H587   1.084       .  S
C579        C580   1.414       .  A
C579        S583   1.808       .  S
C580        C801   1.407   1_554  A
C581        C800   1.407       .  A
C581        H808   1.084       .  S
C582        S584   1.801       .  S
S583        H586   1.407       .  S
S584        H585   1.407       .  S
H588        C801   1.084       .  S
C589        C590   1.408       .  A
C589        C594   1.418       .  A
C590        C591   1.396       .  A
C590        H599   1.083       .  S
C591        C592   1.412       .  A
C591        S595   1.803       .  S
C592        C593   1.405       .  A
C593        C594   1.411       .  A
C593        H600   1.083       .  S
C594        S596   1.801       .  S
S595        H598   1.408       .  S
S596        H597   1.407       .  S
C601        C602   1.407       .  A
C601        C606   1.415       .  A
C602        C603   1.402       .  A
C602        H611   1.083       .  S
C603        C604   1.411       .  A
C603        S607   1.803       .  S
C604        C605   1.404       .  A
C605        C606   1.409       .  A
C605        H612   1.082       .  S
C606        S608   1.804       .  S
S607        H610   1.407       .  S
S608        H609   1.406       .  S
C613        C614   1.403       .  A
C613        C618   1.412       .  A
C614        C615   1.399       .  A
C614        H623   1.084       .  S
C615        C616   1.416       .  A
C615        S619   1.802       .  S
C616        C617   1.408       .  A
C617        C618   1.405       .  A
C617        H624   1.084       .  S
C618        S620   1.802       .  S
S619        H622   1.408       .  S
S620        H621   1.405       .  S
C625        C626   1.403       .  A
C625        C630   1.414       .  A
C626        C627   1.403       .  A
C626        H635   1.082       .  S
C627        C628   1.417       .  A
C627        S631   1.803       .  S
C628        C629   1.410       .  A
C629        C630   1.403       .  A
C629        H636   1.084       .  S
C630        S632   1.802       .  S
S631        H634   1.406       .  S
S632        H633   1.407       .  S
C637        C638   1.403       .  A
C637        C642   1.411       .  A
C638        H647   1.078       .  S
C639        C640   1.426       .  A
C639        S643   1.808       .  S
C640        C641   1.420       .  A
C641        H648   1.077       .  S
C642        S644   1.808       .  S
S643        H646   1.407       .  S
S644        H645   1.407       .  S
C649        C650   1.413       .  A
C649        C654   1.427       .  A
C650        C651   1.408       .  A
C650        H659   1.082       .  S
C651        C652   1.414       .  A
C651        S655   1.801       .  S
C652        C653   1.402       .  A
C653        C654   1.409       .  A
C653        H660   1.083       .  S
C654        S656   1.806       .  S
S655        H658   1.403       .  S
S656        H657   1.405       .  S
C661        C662   1.548       .  S
C661        C667   1.536       .  S
C661        C665   1.551       .  S
C661        C869   1.562       .  S
C662        H669   1.083       .  S
C662        C663   1.373       .  D
C663        C664   1.542       .  S
C663        C848   1.498       .  S
C664        C668   1.542       .  S
C664        C666   1.538       .  S
C664        H670   1.109       .  S
C665        H671   1.085       .  S
C665        C666   1.379       .  D
C666        C857   1.508       .  S
C667        H672   1.085       .  S
C667        C668   1.358       .  D
C668        C833   1.480       .  S
C673        C674   1.535       .  S
C673        C679   1.554       .  S
C673        C677   1.551       .  S
C673        C860   1.568       .  S
C674        H681   1.086       .  S
C674        C675   1.369       .  D
C675        C676   1.551       .  S
C675        C809   1.511       .  S
C676        C680   1.537       .  S
C676        C678   1.546       .  S
C676        H682   1.106       .  S
C677        H683   1.086       .  S
C677        C678   1.377       .  D
C678        C872   1.502       .  S
C679        H684   1.079       .  S
C679        C680   1.367       .  D
C680        C821   1.498       .  S
In685       O687   2.240       .  S
In685       O688   2.257       .  S
In685       O696   2.268       .  S
In685       O690   2.250       .  S
In685       O692   2.247       .  S
In685       O693   2.261       .  S
In685       O694   2.253       .  S
In685       O697   2.234       .  S
C686        O692   1.261       .  A
C686        O694   1.262       .  A
C686        C776   1.488       .  S
O687        C695   1.259       .  A
O688        C695   1.260       .  A
C689        O696   1.261       .  A
C689        O690   1.258       .  A
C689        C824   1.483       .  S
C691        O693   1.262       .  A
C691        O697   1.259       .  A
C691        C797   1.482       .  S
C695        C785   1.485       .  S
In698       O700   2.232       .  S
In698       O701   2.253       .  S
In698       O709   2.259       .  S
In698       O703   2.247       .  S
In698       O705   2.235       .  S
In698       O706   2.230       .  S
In698       O707   2.250       .  S
In698       O710   2.255       .  S
C699        O705   1.259       .  A
C699        O707   1.262       .  A
C699        C761   1.486       .  S
O700        C708   1.259       .  A
O701        C708   1.262       .  A
C702        O709   1.259       .  A
C702        O703   1.257       .  A
C702        C845   1.486       .  S
C704        O706   1.259       .  A
C704        O710   1.263       .  A
C704        C800   1.484       .  S
C708        C788   1.482       .  S
In711       O713   2.237       .  S
In711       O714   2.254       .  S
In711       O722   2.260       .  S
In711       O716   2.271       .  S
In711       O718   2.277       .  S
In711       O719   2.225       .  S
In711       O720   2.248       .  S
In711       O723   2.270       .  S
C712        O718   1.260       .  A
C712        O720   1.254       .  A
C712        C773   1.488       .  S
O713        C721   1.262       .  A
O714        C721   1.264       .  A
C715        O722   1.257       .  A
C715        O716   1.260       .  A
C715        C812   1.494       .  S
C717        O719   1.256       .  A
C717        O723   1.264       .  A
C717        C752   1.486       .  S
C721        C737   1.478       .  S
In724       O726   2.230       .  S
In724       O727   2.255       .  S
In724       O735   2.240       .  S
In724       O729   2.266       .  S
In724       O731   2.240       .  S
In724       O732   2.244       .  S
In724       O733   2.231       .  S
In724       O736   2.230       .  S
C725        O731   1.263       .  A
C725        O733   1.260       .  A
C725        C764   1.484       .  S
O726        C734   1.257       .  A
O727        C734   1.261       .  A
C728        O735   1.258       .  A
C728        O729   1.260       .  A
C728        C836   1.485       .  S
C730        O732   1.262       .  A
C730        O736   1.260       .  A
C730        C749   1.472       .  S
C734        C740   1.476       .  S
C737        C738   1.404       .  A
C737        C742   1.414       .  A
C738        H747   1.084       .  S
C739        C740   1.410       .  A
C739        S743   1.802       .  S
C742        S744   1.804       .  S
S743        H746   1.408       .  S
S744        H745   1.407       .  S
C749        C754   1.413       .  A
C750        C751   1.405       .  A
C750        H759   1.083       .  S
C751        C752   1.415       .  A
C751        S755   1.808       .  S
C752        C753   1.409       .  A
C753        H760   1.084   1_556  S
C754        S756   1.805       .  S
S755        H758   1.407       .  S
S756        H757   1.408       .  S
C761        C762   1.406       .  A
C761        C766   1.415       .  A
C762        C763   1.404   1_565  A
C762        H771   1.082       .  S
C763        C764   1.416       .  A
C763        S767   1.809       .  S
C764        C765   1.404       .  A
C765        C766   1.397   1_545  A
C765        H772   1.084       .  S
C766        S768   1.801       .  S
S767        H770   1.406       .  S
S768        H769   1.408       .  S
C773        C774   1.405       .  A
C773        C778   1.416       .  A
C774        C775   1.406   1_545  A
C774        H783   1.083       .  S
C775        C776   1.415       .  A
C775        S779   1.808       .  S
C776        C777   1.405       .  A
C777        C778   1.400   1_565  A
C777        H784   1.084       .  S
C778        S780   1.803       .  S
S779        H782   1.407       .  S
S780        H781   1.407       .  S
C785        C786   1.407       .  A
C785        C790   1.416       .  A
C786        H795   1.083       .  S
C787        C788   1.414       .  A
C787        S791   1.802       .  S
C789        C790   1.395   1_554  A
C790        S792   1.803       .  S
S791        H794   1.408       .  S
S792        H793   1.408       .  S
C797        C798   1.405   1_556  A
C797        C802   1.412       .  A
C798        H807   1.083       .  S
C799        C800   1.415       .  A
C799        S803   1.800       .  S
C802        S804   1.801   1_655  S
S803        H806   1.406       .  S
S804        H805   1.407   1_455  S
C809        C810   1.411       .  A
C809        C814   1.419       .  A
C810        C811   1.400       .  A
C810        H819   1.083       .  S
C811        C812   1.415       .  A
C811        S815   1.802       .  S
C812        C813   1.405       .  A
C813        C814   1.408       .  A
C813        H820   1.083       .  S
C814        S816   1.798       .  S
S815        H818   1.408       .  S
S816        H817   1.407       .  S
C821        C822   1.407       .  A
C821        C826   1.416       .  A
C822        C823   1.402       .  A
C822        H831   1.084       .  S
C823        C824   1.414       .  A
C823        S827   1.803       .  S
C824        C825   1.402       .  A
C825        C826   1.406       .  A
C825        H832   1.083       .  S
C826        S828   1.803       .  S
S827        H830   1.407       .  S
S828        H829   1.406       .  S
C833        C834   1.400       .  A
C833        C838   1.411       .  A
C834        C835   1.401       .  A
C834        H843   1.083       .  S
C835        C836   1.416       .  A
C835        S839   1.809       .  S
C836        C837   1.407       .  A
C837        C838   1.404       .  A
C837        H844   1.084       .  S
C838        S840   1.803       .  S
S839        H842   1.407       .  S
S840        H841   1.405       .  S
C845        C846   1.404       .  A
C845        C850   1.413       .  A
C846        C847   1.405       .  A
C846        H855   1.082       .  S
C847        C848   1.417       .  A
C847        S851   1.804       .  S
C848        C849   1.407       .  A
C849        C850   1.403       .  A
C849        H856   1.082       .  S
C850        S852   1.809       .  S
S851        H854   1.406       .  S
S852        H853   1.406       .  S
C857        C858   1.405       .  A
C857        C862   1.409       .  A
C858        H867   1.080       .  S
C859        C860   1.425       .  A
C859        S863   1.810       .  S
C860        C861   1.420   1_655  A
C861        H868   1.070       .  S
C862        S864   1.809       .  S
S863        H866   1.407       .  S
S864        H865   1.407       .  S
C869        C870   1.417       .  A
C869        C874   1.426       .  A
C870        C871   1.413       .  A
C870        H879   1.080       .  S
C871        C872   1.415       .  A
C871        S875   1.805       .  S
C872        C873   1.400       .  A
C873        C874   1.407       .  A
C873        H880   1.082       .  S
C874        S876   1.805       .  S
S875        H878   1.401       .  S
S876        H877   1.402       .  S
