geometry optimzed in LAMMPS
_audit_creation_date              2020-11-30 
_audit_creation_method            'lammps2cif' 
_symmetry_space_group_name_H-M    'P1' 
_symmetry_Int_Tables_number       1 
_symmetry_cell_setting            triclinic 
loop_ 
_symmetry_equiv_pos_as_xyz 
  x,y,z 
_cell_length_a                    41.11977971 
_cell_length_b                    40.6301899363617 
_cell_length_c                    40.009689120463484 
_cell_angle_alpha                 90.04639677472693 
_cell_angle_beta                  90.66051078684308 
_cell_angle_gamma                 119.86991081631882 
loop_ 
_atom_site_label 
_atom_site_type_symbol 
_atom_site_fract_x 
_atom_site_fract_y 
_atom_site_fract_z 
_atom_site_charge 
O1          O  0.40397820  0.19860760  0.40635417    -0.79000
C2          C  0.27422823  0.10872336  0.33141875     1.00400
O3          O  0.30603632  0.11183590  0.33534593    -0.68100
O4          O  0.37849157  0.14721545  0.34780613    -0.71700
Al5        Al  0.33502708  0.12789478  0.37544426     1.49000
C6          C  0.39734490  0.17798315  0.33237662     0.95700
O7          O  0.35866610  0.24262008  0.35305188    -0.77900
O8          O  0.30569966  0.21330078  0.40662867    -0.71400
Al9        Al  0.37663656  0.21579013  0.37954648     1.90100
O10         O  0.30072960  0.20001073  0.33926206    -0.70500
O11         O  0.27407460  0.13984438  0.41729950    -0.70400
O12         O  0.26356556  0.12655536  0.34985514    -0.76000
O13         O  0.29176458  0.09901019  0.40272410    -0.74200
O14         O  0.33389285  0.17123002  0.37774295    -1.10400
O15         O  0.36402978  0.13838907  0.41512541    -0.69600
C16         C  0.39448915  0.16811683  0.42165922     1.01200
C17         C  0.32948728  0.23203553  0.33541112     0.97600
Al18       Al  0.28983944  0.17000154  0.37825163     1.55600
O19         O  0.39485592  0.20680867  0.33933148    -0.74200
C20         C  0.27268195  0.10835346  0.42084097     1.01700
C21         C  0.33476171  0.23279790  0.42415380     0.96600
O22         O  0.36399677  0.23081761  0.41994059    -0.79500
C23         C  0.33550235  0.31500276  0.48227392     0.06000
C24         C  0.36653784  0.35160648  0.48016669    -0.10200
C25         C  0.37721439  0.36866876  0.00595294     0.03500
C26         C  0.34785927  0.36845019  0.02401213    -0.08700
C27         C  0.31188791  0.33625631  0.02342840     0.06000
C28         C  0.30507450  0.30396490  0.00508481    -0.08100
H29         H  0.38935115  0.35598250  0.46415950     0.11600
H30         H  0.35267544  0.39269808  0.03896431     0.09100
H31         H  0.27730180  0.27908867  0.00457902     0.08900
C32         C  0.50313767  0.02720080  0.51078394     0.06000
C33         C  0.47027532  0.50661295  0.01162450    -0.10200
C34         C  0.46469296  0.46967186  0.01301932     0.03500
C35         C  0.00631248  0.46126588  0.50548713    -0.08700
C36         C  0.04045308  0.49446452  0.51107346     0.06000
C37         C  0.02489066  0.02483300  0.49927267    -0.08100
H38         H  0.44605398  0.51036932  0.01268798     0.11600
H39         H  0.00586469  0.43438148  0.50390036     0.09100
H40         H  0.05056666  0.05160084  0.50159076     0.08900
C41         C  0.03725127  0.19048102  0.01281641     0.06000
C42         C  0.03950050  0.15726570  0.01204244    -0.10200
C43         C  0.00940005  0.12843417  0.49692449     0.03500
C44         C  0.46367208  0.12165301  0.48443957    -0.08700
C45         C  0.46745472  0.15781006  0.48394501     0.06000
C46         C  0.00232981  0.19406102  0.49619880    -0.08100
H47         H  0.06128486  0.15601402  0.02658524     0.11600
H48         H  0.44098532  0.09883887  0.47026059     0.09100
H49         H  0.99949328  0.21920419  0.49613923     0.08900
C50         C  0.16524492  0.47734142  0.02095101     0.06000
C51         C  0.13351424  0.48128027  0.02467022    -0.10200
C52         C  0.14258592  0.51479272  0.50688474     0.03500
C53         C  0.16114705  0.03811620  0.48482968    -0.08700
C54         C  0.19265900  0.03353749  0.48328604     0.06000
C55         C  0.20607934  0.50598177  0.50225406    -0.08100
H56         H  0.11122731  0.46132371  0.04041171     0.11600
H57         H  0.16095108  0.06109183  0.47120786     0.09100
H58         H  0.23042456  0.50243221  0.50017789     0.08900
O59         O  0.09851247  0.29161367  0.09372441    -0.79000
C60         C  0.22542722  0.33094003  0.17113970     1.00400
O61         O  0.19403418  0.30184987  0.16570599    -0.68100
O62         O  0.12208753  0.26381668  0.15027291    -0.71700
Al63       Al  0.16699351  0.29043459  0.12467313     1.49000
C64         C  0.10264582  0.27449873  0.16620652     0.95700
O65         O  0.14140186  0.37978384  0.14953150    -0.77900
O66         O  0.19608682  0.40582990  0.09635210    -0.71400
Al67       Al  0.12468333  0.33560358  0.12189292     1.90100
O68         O  0.19927264  0.39621178  0.16386157    -0.70500
O69         O  0.22923113  0.36571389  0.08602551    -0.70400
O70         O  0.23664414  0.36040421  0.15375881    -0.76000
O71         O  0.21169327  0.30681807  0.09918842    -0.74200
O72         O  0.16771157  0.33477794  0.12384668    -1.10400
O73         O  0.14000190  0.27388719  0.08377278    -0.69600
C74         C  0.10916350  0.27218621  0.07741193     1.01200
C75         C  0.17038437  0.39906083  0.16732228     0.97600
Al76       Al  0.21150196  0.37823406  0.12489397     1.55600
O77         O  0.10590957  0.30657915  0.16129882    -0.74200
C78         C  0.23149093  0.33615892  0.08224404     1.01700
C79         C  0.16730148  0.39619238  0.07842699     0.96600
O80         O  0.13790846  0.36475555  0.08228261    -0.79500
C81         C  0.33349217  0.31317283  0.27384537     0.06000
C82         C  0.36623999  0.34877960  0.27538675    -0.10200
C83         C  0.36871146  0.37940418  0.25683856     0.03500
C84         C  0.33761964  0.37371269  0.23743665    -0.08700
C85         C  0.30498281  0.33816191  0.23608165     0.06000
C86         C  0.30295710  0.30784107  0.25413970    -0.08100
H87         H  0.38907396  0.35236539  0.29152917     0.11600
H88         H  0.33884601  0.39697500  0.22314918     0.09100
H89         H  0.27764450  0.28030175  0.25305889     0.08900
C90         C  0.46983294  0.46485828  0.26818961     0.06000
C91         C  0.99469003  0.46196146  0.22213577    -0.10200
C92         C  0.02992633  0.99897233  0.23052855     0.03500
C93         C  0.03358823  0.03528396  0.22904638    -0.08700
C94         C  0.50993330  0.04807489  0.24104520     0.06000
C95         C  0.47570869  0.01430938  0.23651249    -0.08100
H96         H  0.99211363  0.43413761  0.22240528     0.11600
H97         H  0.06104766  0.06037719  0.22847409     0.09100
H98         H  0.45074676  0.01550467  0.22979988     0.08900
C99         C  0.02087422  0.19387294  0.22385306     0.06000
C100        C  0.01608183  0.15731065  0.22081940    -0.10200
C101        C  0.48959894  0.13116134  0.24450450     0.03500
C102        C  0.46515128  0.13769751  0.26382414    -0.08700
C103        C  0.46949603  0.17403869  0.26620158     0.06000
C104        C  0.49835368  0.20430896  0.24884089    -0.08100
H105        H  0.03456910  0.15306776  0.20460079     0.11600
H106        H  0.44310508  0.11455172  0.27769080     0.09100
H107        H  0.50191510  0.23254029  0.25077670     0.08900
C108        C  0.16690604  0.47943766  0.22521505     0.06000
C109        C  0.19411396  0.00551389  0.25100698    -0.10200
C110        C  0.19307559  0.03532101  0.26743515     0.03500
C111        C  0.16128265  0.03937613  0.26454261    -0.08700
C112        C  0.13016822  0.01375370  0.24510774     0.06000
C113        C  0.13458886  0.48249001  0.22120996    -0.08100
H114        H  0.21871789  0.00235047  0.25332750     0.11600
H115        H  0.16072615  0.06247763  0.27762360     0.09100
H116        H  0.11254563  0.46280586  0.20452572     0.08900
C117        C  0.06288645  0.99308245  0.23196929    -0.13600
C118        C  0.09730014  0.01972791  0.24269237    -0.28800
H119        H  0.05776369  0.96493316  0.22563329     0.15400
H120        H  0.10078162  0.54207625  0.24480794     0.16000
C121        C  0.48485536  0.09252248  0.24400352    -0.13600
C122        C  0.51334060  0.08603555  0.23815474    -0.28800
H123        H  0.45790859  0.06928827  0.25158545     0.15400
H124        H  0.03520479  0.10152349  0.22059204     0.16000
C125        C  0.40239594  0.41797794  0.25753600    -0.13600
C126        C  0.43664597  0.42591745  0.26866329    -0.28800
H127        H  0.39891268  0.44054491  0.24677656     0.15400
H128        H  0.44133784  0.40311835  0.27666612     0.16000
C129        C  0.07498223  0.24869965  0.18898508    -0.10400
C130        C  0.05049804  0.22475462  0.20583073    -0.12000
C131        C  0.17082151  0.42616043  0.19056095    -0.10400
C132        C  0.16980639  0.45020689  0.20744189    -0.12000
C133        C  0.27390569  0.33286102  0.21550588    -0.10400
C134        C  0.24996996  0.33049789  0.19648163    -0.12000
C135        C  0.16744233  0.42273431  0.05481037    -0.10400
C136        C  0.16709682  0.44714836  0.03800862    -0.12000
C137        C  0.06327042  0.22185912  0.03334980    -0.10400
C138        C  0.08476673  0.24614725  0.05236986    -0.12000
C139        C  0.07467971  0.49122113  0.51428362    -0.13600
C140        C  0.10922584  0.51971739  0.50741417    -0.28800
H141        H  0.07061611  0.46324852  0.51962739     0.15400
H142        H  0.10650583  0.04404197  0.98989745     0.16000
C143        C  0.98698884  0.05882887  0.49068151    -0.13600
C144        C  0.01429719  0.09438710  0.49857861    -0.28800
H145        H  0.95971889  0.05438052  0.48298777     0.15400
H146        H  0.45758662  0.05368590  0.99039838     0.16000
C147        C  0.25830790  0.33626223  0.05949706    -0.10400
C148        C  0.28221060  0.33618300  0.04233398    -0.12000
C149        C  0.41603363  0.40161686  0.00546250    -0.13600
C150        C  0.42564034  0.43719263  0.01489110    -0.28800
H151        H  0.43729705  0.39635330  0.99512699     0.15400
H152        H  0.43940813  0.40295116  0.48569696     0.16000
C153        C  0.22390644  0.05939293  0.46325132    -0.10400
C154        C  0.24752895  0.08184982  0.44479512    -0.12000
C155        C  0.24870535  0.08337367  0.30658019    -0.10400
C156        C  0.22431952  0.06150309  0.28788234    -0.12000
C157        C  0.41972105  0.16679534  0.44584036    -0.10400
C158        C  0.44158501  0.16397794  0.46420837    -0.12000
C159        C  0.44467748  0.17964642  0.28754979    -0.10400
C160        C  0.42295479  0.18028919  0.30718017    -0.12000
C161        C  0.32906204  0.25792035  0.31150124    -0.10400
C162        C  0.33072261  0.28236768  0.29348400    -0.12000
C163        C  0.33508976  0.25957355  0.44756314    -0.10400
C164        C  0.33515880  0.28421361  0.46431281    -0.12000
O165        O  0.39413961  0.19861580  0.91653783    -0.79000
C166        C  0.27199061  0.10621098  0.82925564     1.00400
O167        O  0.29178398  0.09624621  0.84591486    -0.68100
O168        O  0.36375539  0.13828822  0.83377258    -0.71700
Al169      Al  0.33566027  0.12392643  0.87356795     1.49000
C170        C  0.39454560  0.16840726  0.82993684     0.95700
O171        O  0.36417891  0.23038617  0.83883904    -0.77900
O172        O  0.29959281  0.19266021  0.91620317    -0.71400
Al173      Al  0.37640891  0.21161217  0.87746990     1.90100
O174        O  0.30484160  0.20983837  0.84929630    -0.70500
O175        O  0.26461163  0.12012830  0.90205977    -0.70400
O176        O  0.27337448  0.13731842  0.83493490    -0.76000
O177        O  0.30789256  0.10484816  0.91321340    -0.74200
O178        O  0.33384029  0.16696808  0.87554480    -1.10400
O179        O  0.37984080  0.14121074  0.90080663    -0.69600
C180        C  0.39771066  0.16975539  0.91959234     1.01200
C181        C  0.33432653  0.23111055  0.83350425     0.97600
Al182      Al  0.28946973  0.16511939  0.87558104     1.55600
O183        O  0.40418982  0.19704250  0.84850878    -0.74200
C184        C  0.27642511  0.10174500  0.91874116     1.01700
C185        C  0.32811842  0.22412575  0.92283848     0.96600
O186        O  0.35796957  0.23586081  0.90663368    -0.79500
C187        C  0.33421364  0.30388673  0.98740539     0.06000
C188        C  0.36997013  0.33600897  0.98796174    -0.10200
C189        C  0.36774082  0.38193141  0.49843773     0.03500
C190        C  0.33643080  0.37506609  0.51729159    -0.08700
C191        C  0.30508672  0.33854594  0.51869512     0.06000
C192        C  0.30474859  0.30846445  0.50148620    -0.08100
H193        H  0.39223782  0.33565833  0.97396305     0.11600
H194        H  0.33671544  0.39798727  0.53144704     0.09100
H195        H  0.28065392  0.28012750  0.50299770     0.08900
C196        C  0.50628550  0.02818154  0.00616479     0.06000
C197        C  0.47296815  0.49896736  0.49983424    -0.10200
C198        C  0.47121835  0.46347246  0.49785941     0.03500
C199        C  0.99575226  0.46409184  0.02618152    -0.08700
C200        C  0.03169988  0.49622201  0.02553582     0.06000
C201        C  0.03117570  0.02354152  0.99074608    -0.08100
H202        H  0.44749952  0.50025556  0.49727500     0.11600
H203        H  0.99334637  0.43635275  0.02662192     0.09100
H204        H  0.05667192  0.05051523  0.99330627     0.08900
C205        C  0.03104156  0.19366281  0.51497842     0.06000
C206        C  0.03458309  0.16107671  0.51518236    -0.10200
C207        C  0.01377098  0.12559146  0.99310956     0.03500
C208        C  0.46527706  0.12249486  0.98354318    -0.08700
C209        C  0.46992524  0.15905487  0.98287967     0.06000
C210        C  0.00914197  0.19259893  0.99463989    -0.08100
H211        H  0.05674273  0.16096483  0.53006736     0.11600
H212        H  0.44261017  0.09998318  0.96910602     0.09100
H213        H  0.00735741  0.21832994  0.99545479     0.08900
C214        C  0.17619118  0.48174729  0.52264404     0.06000
C215        C  0.14474512  0.48634770  0.52517468    -0.10200
C216        C  0.13129894  0.51108596  0.00882416     0.03500
C217        C  0.16730629  0.03609309  0.98377388    -0.08700
C218        C  0.19887040  0.03158837  0.98449422     0.06000
C219        C  0.19539508  0.50342358  0.00183929    -0.08100
H220        H  0.12236614  0.46791170  0.54167516     0.11600
H221        H  0.16712477  0.05765766  0.96792301     0.09100
H222        H  0.22002363  0.50045737  0.99915411     0.08900
O223        O  0.10659412  0.30773079  0.58466777    -0.79000
C224        C  0.22713601  0.33167657  0.67128079     1.00400
O225        O  0.20727121  0.30278011  0.65341208    -0.68100
O226        O  0.13499124  0.27151076  0.66445212    -0.71700
Al227      Al  0.16422806  0.28842236  0.62526799     1.49000
C228        C  0.10422011  0.27055115  0.66856041     0.95700
O229        O  0.13675964  0.36435207  0.66579851    -0.77900
O230        O  0.20155228  0.39584348  0.58813390    -0.71400
Al231      Al  0.12431609  0.33597718  0.62532556     1.90100
O232        O  0.19600561  0.40414068  0.65548989    -0.70500
O233        O  0.23616192  0.35785247  0.60001166    -0.70400
O234        O  0.22641950  0.36199469  0.66717403    -0.76000
O235        O  0.19306216  0.29985721  0.58594834    -0.74200
O236        O  0.16653203  0.33354933  0.62603647    -1.10400
O237        O  0.12080155  0.26370839  0.59692003    -0.69600
C238        C  0.10307920  0.27551821  0.57945305     1.01200
C239        C  0.16681472  0.39474699  0.67198376     0.97600
Al240      Al  0.21110999  0.37619005  0.62757132     1.55600
O241        O  0.09564769  0.29149624  0.65179840    -0.74200
C242        C  0.22482394  0.32866428  0.58197831     1.01700
C243        C  0.17354295  0.39984229  0.58274553     0.96600
O244        O  0.14358318  0.38099212  0.59871887    -0.79500
C245        C  0.33690403  0.31241560  0.77213205     0.06000
C246        C  0.36936173  0.34830495  0.77338373    -0.10200
C247        C  0.37126228  0.37865581  0.75476931     0.03500
C248        C  0.34003330  0.37244197  0.73539609    -0.08700
C249        C  0.30762092  0.33677044  0.73425048     0.06000
C250        C  0.30602776  0.30664397  0.75250653    -0.08100
H251        H  0.39242512  0.35236344  0.78945475     0.11600
H252        H  0.34088967  0.39553675  0.72110257     0.09100
H253        H  0.28084225  0.27900337  0.75167197     0.08900
C254        C  0.47119908  0.46571985  0.76697059     0.06000
C255        C  0.00291469  0.46911944  0.76625898    -0.10200
C256        C  0.02846097  0.99048690  0.72394464     0.03500
C257        C  0.03233316  0.02687626  0.72282163    -0.08700
C258        C  0.50397466  0.03603013  0.72622663     0.06000
C259        C  0.46813974  0.00364175  0.72382677    -0.08100
H260        H  0.00615823  0.44432272  0.76768589     0.11600
H261        H  0.05990512  0.05187480  0.72269513     0.09100
H262        H  0.44337242  0.00649959  0.72256219     0.08900
C263        C  0.02294456  0.18694255  0.72437452     0.06000
C264        C  0.01733486  0.15026090  0.71952508    -0.10200
C265        C  0.48830263  0.12167250  0.74161524     0.03500
C266        C  0.46361104  0.12724011  0.76166199    -0.08700
C267        C  0.46700285  0.16316826  0.76467421     0.06000
C268        C  0.49526466  0.19406114  0.74755122    -0.08100
H269        H  0.03573745  0.14646695  0.70283196     0.11600
H270        H  0.44175183  0.10355124  0.77517030     0.09100
H271        H  0.49798086  0.22191172  0.74991457     0.08900
C272        C  0.16209778  0.46909768  0.73662915     0.06000
C273        C  0.19566181  0.00385858  0.74678823    -0.10200
C274        C  0.19221068  0.03169311  0.76438527     0.03500
C275        C  0.15905445  0.03330683  0.76182015    -0.08700
C276        C  0.12895153  0.00724977  0.74163572     0.06000
C277        C  0.12674981  0.46602464  0.73749539    -0.08100
H278        H  0.22133749  0.00258864  0.74875101     0.11600
H279        H  0.15671468  0.05499009  0.77565178     0.09100
H280        H  0.10376722  0.44361038  0.72323514     0.08900
C281        C  0.06163921  0.98497832  0.72591181    -0.13600
C282        C  0.09487864  0.01119395  0.73929244    -0.28800
H283        H  0.05770997  0.95785926  0.71749255     0.15400
H284        H  0.06031665  0.45986607  0.74532383     0.16000
C285        C  0.48308416  0.08277394  0.73907070    -0.13600
C286        C  0.50947084  0.07508350  0.72799501    -0.28800
H287        H  0.45688000  0.05980600  0.74829299     0.15400
H288        H  0.03477358  0.09353735  0.71595469     0.16000
C289        C  0.40431296  0.41763713  0.75562597    -0.13600
C290        C  0.43871944  0.42634470  0.76681539    -0.28800
H291        H  0.40018588  0.43992427  0.74513681     0.15400
H292        H  0.44407838  0.40388988  0.77453302     0.16000
C293        C  0.07731643  0.24345313  0.69111071    -0.10400
C294        C  0.05299332  0.21852800  0.70736069    -0.12000
C295        C  0.16759436  0.42017571  0.69717889    -0.10400
C296        C  0.16692911  0.44271508  0.71630542    -0.12000
C297        C  0.27631205  0.33168737  0.71401199    -0.10400
C298        C  0.25247276  0.33057426  0.69550788    -0.12000
C299        C  0.17621483  0.42763542  0.55917813    -0.10400
C300        C  0.17742463  0.45222430  0.54150353    -0.12000
C301        C  0.05628601  0.22609181  0.53512976    -0.10400
C302        C  0.07764885  0.25073216  0.55408760    -0.12000
C303        C  0.06477235  0.49060052  0.02408096    -0.13600
C304        C  0.09822987  0.51664098  0.01177148    -0.28800
H305        H  0.06025573  0.46303274  0.03153793     0.15400
H306        H  0.10005194  0.04489357  0.49351005     0.16000
C307        C  0.99408940  0.05754606  0.97933318    -0.13600
C308        C  0.01766301  0.09092516  0.99432733    -0.28800
H309        H  0.97005285  0.05442700  0.96527253     0.15400
H310        H  0.46175819  0.05558900  0.48432647     0.16000
C311        C  0.24955057  0.32846595  0.55735439    -0.10400
C312        C  0.27379702  0.33185030  0.53882423    -0.12000
C313        C  0.40140528  0.42061198  0.49940293    -0.13600
C314        C  0.43596258  0.42682618  0.49259094    -0.28800
H315        H  0.39796515  0.44366164  0.50899008     0.15400
H316        H  0.40409689  0.44348637  0.02251097     0.16000
C317        C  0.22996128  0.05531791  0.96355184    -0.10400
C318        C  0.25288072  0.07626862  0.94391391    -0.12000
C319        C  0.24611369  0.08079344  0.80455195    -0.10400
C320        C  0.22240247  0.05850035  0.78553117    -0.12000
C321        C  0.42330161  0.16930488  0.94404714    -0.10400
C322        C  0.44481592  0.16610271  0.96268387    -0.12000
C323        C  0.44162274  0.16798035  0.78594635    -0.10400
C324        C  0.41996012  0.16941315  0.80514803    -0.12000
C325        C  0.33425633  0.25779105  0.81002822    -0.10400
C326        C  0.33500159  0.28193612  0.79199293    -0.12000
C327        C  0.32646456  0.24805653  0.94832985    -0.10400
C328        C  0.32788895  0.27168042  0.96746477    -0.12000
O329        O  0.39588856  0.70296975  0.41334962    -0.79000
C330        C  0.27309692  0.60831642  0.32771321     1.00400
O331        O  0.29340468  0.59884835  0.34414069    -0.68100
O332        O  0.36523967  0.64006652  0.33161115    -0.71700
Al333      Al  0.33733119  0.62697736  0.37152747     1.49000
C334        C  0.39658772  0.66954019  0.32809001     0.95700
O335        O  0.36594591  0.73119445  0.33348063    -0.77900
O336        O  0.30304239  0.69862924  0.41248298    -0.71400
Al337      Al  0.37850445  0.71467826  0.37331409     1.90100
O338        O  0.30698186  0.71224281  0.34470795    -0.70500
O339        O  0.26725098  0.62523954  0.40107284    -0.70400
O340        O  0.27409579  0.63922725  0.33335291    -0.76000
O341        O  0.30987693  0.60880098  0.41123435    -0.74200
O342        O  0.33574287  0.67018309  0.37261399    -1.10400
O343        O  0.38149801  0.64504100  0.39885005    -0.69600
C344        C  0.39926531  0.67402537  0.41721281     1.01200
C345        C  0.33610302  0.73191184  0.32784522     0.97600
Al346      Al  0.29165994  0.66888887  0.37289001     1.55600
O347        O  0.40627685  0.69861312  0.34601923    -0.74200
C348        C  0.27891453  0.60648976  0.41740139     1.01700
C349        C  0.33137323  0.73084216  0.41713966     0.96600
O350        O  0.36078922  0.74128887  0.40058833    -0.79500
C351        C  0.32960094  0.81193228  0.47620756     0.06000
C352        C  0.36201884  0.84786532  0.47606888    -0.10200
C353        C  0.36545233  0.87845664  0.00020192     0.03500
C354        C  0.33475804  0.87220797  0.01968216    -0.08700
C355        C  0.30176535  0.83689235  0.01936308     0.06000
C356        C  0.29906784  0.80721885  0.99951979    -0.08100
H357        H  0.38554823  0.85167144  0.46137856     0.11600
H358        H  0.33667248  0.89480109  0.03552605     0.09100
H359        H  0.27361929  0.77977813  0.99952461     0.08900
C360        C  0.50772614  0.53250239  0.50538828     0.06000
C361        C  0.47139386  0.99461667  0.00139149    -0.10200
C362        C  0.46968366  0.95920954  0.99794564     0.03500
C363        C  0.99254988  0.95607473  0.49893442    -0.08700
C364        C  0.02603391  0.99075566  0.50174682     0.06000
C365        C  0.04107278  0.52923771  0.51352954    -0.08100
H366        H  0.44581856  0.99587869  0.00035059     0.11600
H367        H  0.99324894  0.92980832  0.50096948     0.09100
H368        H  0.06720487  0.55501347  0.51889257     0.08900
C369        C  0.02263609  0.69141993  0.02798337     0.06000
C370        C  0.01792861  0.65492341  0.03166980    -0.10200
C371        C  0.98905719  0.61611350  0.50514048     0.03500
C372        C  0.46626121  0.62642098  0.48112121    -0.08700
C373        C  0.46994549  0.66260502  0.48155770     0.06000
C374        C  0.99607470  0.68872225  0.50363480    -0.08100
H375        H  0.03607631  0.65100536  0.04902289     0.11600
H376        H  0.44477532  0.60438954  0.46538966     0.09100
H377        H  0.99885398  0.71668617  0.50276282     0.08900
C378        C  0.16794745  0.97965395  0.02348672     0.06000
C379        C  0.13622668  0.98419461  0.02267329    -0.10200
C380        C  0.12950834  0.01274050  0.50291505     0.03500
C381        C  0.17284796  0.53923348  0.48703330    -0.08700
C382        C  0.20435138  0.53484212  0.48457687     0.06000
C383        C  0.19293345  0.00341389  0.50013578    -0.08100
H384        H  0.11245617  0.96602965  0.03800033     0.11600
H385        H  0.17157785  0.56132351  0.47284664     0.09100
H386        H  0.21723331  0.99969798  0.49873703     0.08900
O387        O  0.10577389  0.80670792  0.09130303    -0.79000
C388        C  0.23378126  0.84130542  0.17319827     1.00400
O389        O  0.21245088  0.81061144  0.15799003    -0.68100
O390        O  0.14013593  0.77752574  0.17228724    -0.71700
Al391      Al  0.16721580  0.79266642  0.13164372     1.49000
C392        C  0.10860640  0.77491124  0.17649339     0.95700
O393        O  0.13721035  0.86735461  0.16985211    -0.77900
O394        O  0.19764526  0.89737038  0.08950537    -0.71400
Al395      Al  0.12413580  0.83708227  0.13066411     1.90100
O396        O  0.19549892  0.90842904  0.15705262    -0.70500
O397        O  0.23560798  0.86213341  0.10056706    -0.70400
O398        O  0.23108118  0.87044995  0.16823551    -0.76000
O399        O  0.19396344  0.80219061  0.09124691    -0.74200
O400        O  0.16757377  0.83688137  0.13046614    -1.10400
O401        O  0.12213932  0.76464186  0.10519610    -0.69600
C402        C  0.10271822  0.77447459  0.08767104     1.01200
C403        C  0.16651337  0.89899818  0.17403140     0.97600
Al404      Al  0.21109086  0.88068966  0.12900364     1.55600
O405        O  0.09813047  0.79372928  0.15886447    -0.74200
C406        C  0.22454872  0.83146954  0.08466656     1.01700
C407        C  0.16862338  0.89996324  0.08539069     0.96600
O408        O  0.13989689  0.88057633  0.10266687    -0.79500
C409        C  0.34389010  0.81235561  0.26310107     0.06000
C410        C  0.38014945  0.84347820  0.26093719    -0.10200
C411        C  0.38707109  0.87587259  0.24290481     0.03500
C412        C  0.35672344  0.87606755  0.22599426    -0.08700
C413        C  0.32017583  0.84474080  0.22808432     0.06000
C414        C  0.31390330  0.81297818  0.24677316    -0.08100
H415        H  0.40301476  0.84279183  0.27411360     0.11600
H416        H  0.36114249  0.90001817  0.21095661     0.09100
H417        H  0.28578476  0.78886524  0.24865527     0.08900
C418        C  0.47316426  0.97875538  0.24039572     0.06000
C419        C  0.99389687  0.96694476  0.22994996    -0.10200
C420        C  0.03070436  0.49409883  0.22170958     0.03500
C421        C  0.03424361  0.53030678  0.22002171    -0.08700
C422        C  0.49762053  0.53386109  0.26782265     0.06000
C423        C  0.46610902  0.49742887  0.26895896    -0.08100
H424        H  0.99119472  0.93905412  0.23001235     0.11600
H425        H  0.06165768  0.55540243  0.21855023     0.09100
H426        H  0.43867035  0.49475781  0.27081895     0.08900
C427        C  0.02742161  0.69087580  0.23167438     0.06000
C428        C  0.02169437  0.65438450  0.22539400    -0.10200
C429        C  0.51042030  0.63472828  0.25609419     0.03500
C430        C  0.48101628  0.63582522  0.27294196    -0.08700
C431        C  0.47626229  0.66761175  0.27020980     0.06000
C432        C  0.50108976  0.69875188  0.25111964    -0.08100
H433        H  0.04102761  0.65162739  0.20914989     0.11600
H434        H  0.46210898  0.61264689  0.28864417     0.09100
H435        H  0.49756236  0.72340934  0.24913500     0.08900
C436        C  0.16350161  0.97995507  0.23137098     0.06000
C437        C  0.19651467  0.50526869  0.24572509    -0.10200
C438        C  0.19382745  0.53418886  0.26221735     0.03500
C439        C  0.16147609  0.53708953  0.25836528    -0.08700
C440        C  0.13139196  0.51116139  0.23811613     0.06000
C441        C  0.13176538  0.98415185  0.22815452    -0.08100
H442        H  0.22153850  0.50295288  0.24874102     0.11600
H443        H  0.15962785  0.55949088  0.27144113     0.09100
H444        H  0.10898347  0.96467798  0.21196062     0.08900
C445        C  0.06405275  0.48888752  0.22311000    -0.13600
C446        C  0.09779886  0.51578808  0.23502741    -0.28800
H447        H  0.05974840  0.46120927  0.21609108     0.15400
H448        H  0.10150053  0.04674874  0.25175894     0.16000
C449        C  0.51700786  0.60189784  0.25764151    -0.13600
C450        C  0.49147503  0.56701877  0.26805724    -0.28800
H451        H  0.54344868  0.60648824  0.24795363     0.15400
H452        H  0.03538682  0.59625224  0.21254286     0.16000
C453        C  0.42628814  0.90863010  0.24318928    -0.13600
C454        C  0.43497387  0.94457114  0.23662817    -0.28800
H455        H  0.44811409  0.90291026  0.25156483     0.15400
H456        H  0.41242884  0.94994211  0.22992452     0.16000
C457        C  0.08276511  0.74809623  0.19990496    -0.10400
C458        C  0.05825964  0.72312018  0.21600531    -0.12000
C459        C  0.16616487  0.92589515  0.19695003    -0.10400
C460        C  0.16510555  0.95004960  0.21358012    -0.12000
C461        C  0.28905563  0.84473393  0.21066403    -0.10400
C462        C  0.26311844  0.84350704  0.19491973    -0.12000
C463        C  0.16863150  0.92675123  0.06185325    -0.10400
C464        C  0.16833210  0.95054710  0.04394059    -0.12000
C465        C  0.05160177  0.72280933  0.04698299    -0.10400
C466        C  0.07545942  0.74755972  0.06441598    -0.12000
C467        C  0.06102201  0.98895906  0.50710188    -0.13600
C468        C  0.09596661  0.01773604  0.50188315    -0.28800
H469        H  0.05723862  0.96122909  0.51296747     0.15400
H470        H  0.10134937  0.54288970  0.00186596     0.16000
C471        C  0.01162236  0.56956549  0.51164480    -0.13600
C472        C  0.98390309  0.57712036  0.50464504    -0.28800
H473        H  0.03920862  0.59305417  0.51798983     0.15400
H474        H  0.46072960  0.56493204  0.98943418     0.16000
C475        C  0.24824077  0.82990996  0.05948679    -0.10400
C476        C  0.27123285  0.83138758  0.04023591    -0.12000
C477        C  0.40015645  0.91640381  0.00230238    -0.13600
C478        C  0.43408866  0.92266032  0.99291851    -0.28800
H479        H  0.39793386  0.93915162  0.01429517     0.15400
H480        H  0.43605944  0.89950804  0.48197855     0.16000
C481        C  0.23398197  0.55959855  0.46280646    -0.10400
C482        C  0.25581709  0.58118475  0.44283106    -0.12000
C483        C  0.24729739  0.58271808  0.30305427    -0.10400
C484        C  0.22380702  0.56061319  0.28376780    -0.12000
C485        C  0.42450313  0.67380434  0.44208351    -0.10400
C486        C  0.44546867  0.67007975  0.46095982    -0.12000
C487        C  0.44661091  0.66870293  0.28805974    -0.10400
C488        C  0.42280796  0.66931220  0.30491452    -0.12000
C489        C  0.33579187  0.75697808  0.30280263    -0.10400
C490        C  0.33779550  0.78073276  0.28359087    -0.12000
C491        C  0.32963981  0.75702885  0.44032621    -0.10400
C492        C  0.32883651  0.78109220  0.45751397    -0.12000
O493        O  0.39221206  0.70489386  0.91585947    -0.79000
C494        C  0.26786657  0.60510302  0.83335132     1.00400
O495        O  0.28829785  0.59666028  0.85085999    -0.68100
O496        O  0.36053962  0.63658333  0.83831089    -0.71700
Al497      Al  0.33216368  0.62603597  0.87806017     1.49000
C498        C  0.39138790  0.66618016  0.83303424     0.95700
O499        O  0.36027190  0.72832178  0.83453733    -0.77900
O500        O  0.29817563  0.69951304  0.91396954    -0.71400
Al501      Al  0.37350652  0.71388236  0.87524387     1.90100
O502        O  0.30162050  0.71007806  0.84598489    -0.70500
O503        O  0.26161552  0.62562281  0.90473584    -0.70400
O504        O  0.26912471  0.63648188  0.83692468    -0.76000
O505        O  0.30405384  0.60994089  0.91802207    -0.74200
O506        O  0.33073292  0.66931363  0.87630742    -1.10400
O507        O  0.37627382  0.64559297  0.90564872    -0.69600
C508        C  0.39540802  0.67617036  0.92170966     1.01200
C509        C  0.33045497  0.72896912  0.82867955     0.97600
Al510      Al  0.28656207  0.66803373  0.87548976     1.55600
O511        O  0.40078727  0.69649599  0.84893445    -0.74200
C512        C  0.27264347  0.60742268  0.92256901     1.01700
C513        C  0.32682664  0.73168153  0.91801019     0.96600
O514        O  0.35602377  0.74149581  0.90129123    -0.79500
C515        C  0.32929203  0.81304096  0.97967328     0.06000
C516        C  0.36218079  0.84859725  0.97971897    -0.10200
C517        C  0.36362753  0.87829821  0.49450839     0.03500
C518        C  0.33181169  0.87230543  0.51198465    -0.08700
C519        C  0.29937932  0.83662564  0.51206612     0.06000
C520        C  0.29823082  0.80630929  0.49429402    -0.08100
H521        H  0.38471104  0.85261073  0.96350865     0.11600
H522        H  0.33256399  0.89532989  0.52636209     0.09100
H523        H  0.27320443  0.77854602  0.49464977     0.08900
C524        C  0.50662846  0.53828076  0.00969574     0.06000
C525        C  0.46889039  0.99421481  0.50271572    -0.10200
C526        C  0.46761904  0.95917200  0.49789978     0.03500
C527        C  0.99864016  0.95477145  0.99108739    -0.08700
C528        C  0.03212421  0.98944519  0.99444024     0.06000
C529        C  0.03527911  0.53248830  0.02659505    -0.08100
H530        H  0.44355927  0.99587088  0.50052752     0.11600
H531        H  0.99898408  0.92843333  0.99425487     0.09100
H532        H  0.06276480  0.55761907  0.02726326     0.08900
C533        C  0.02107667  0.68261871  0.52302476     0.06000
C534        C  0.01756175  0.64640428  0.52396192    -0.10200
C535        C  0.98952802  0.62387983  0.01357696     0.03500
C536        C  0.46804250  0.63352981  0.98196428    -0.08700
C537        C  0.47155509  0.66964944  0.98253208     0.06000
C538        C  0.99872343  0.69706655  0.00644553    -0.08100
H539        H  0.03667300  0.64206916  0.53968623     0.11600
H540        H  0.44544611  0.61097747  0.96749809     0.09100
H541        H  0.00223803  0.72519280  0.00361069     0.08900
C542        C  0.16175155  0.97810941  0.51880286     0.06000
C543        C  0.13038995  0.98306587  0.52049771    -0.10200
C544        C  0.13550038  0.01219436  0.00229479     0.03500
C545        C  0.16187145  0.53717189  0.98982734    -0.08700
C546        C  0.19377276  0.53345668  0.98635517     0.06000
C547        C  0.19925096  0.00337673  0.00428088    -0.08100
H548        H  0.10706305  0.96383165  0.53574556     0.11600
H549        H  0.16080437  0.56039355  0.97751408     0.09100
H550        H  0.22367566  0.99978564  0.00460542     0.08900
O551        O  0.09259191  0.79069623  0.59537026    -0.79000
C552        C  0.22603286  0.83209070  0.66619048     1.00400
O553        O  0.19385010  0.80340809  0.66349779    -0.68100
O554        O  0.12082391  0.76595620  0.65385021    -0.71700
Al555      Al  0.16268357  0.78972145  0.62458280     1.49000
C556        C  0.10157543  0.77728224  0.66921362     0.95700
O557        O  0.13997225  0.88099334  0.64854297    -0.77900
O558        O  0.19104808  0.90511550  0.59401284    -0.71400
Al559      Al  0.12094544  0.83582178  0.62182438     1.90100
O560        O  0.19815481  0.89639916  0.66105858    -0.70500
O561        O  0.22170108  0.86293549  0.58122727    -0.70400
O562        O  0.23551172  0.86066994  0.64804377    -0.76000
O563        O  0.20422268  0.80411604  0.59530840    -0.74200
O564        O  0.16365261  0.83418771  0.62255507    -1.10400
O565        O  0.13151571  0.76958973  0.58623772    -0.69600
C566        C  0.10078682  0.76835666  0.58071018     1.01200
C567        C  0.16967431  0.89979278  0.66565088     0.97600
Al568      Al  0.20770857  0.87742538  0.62120642     1.55600
O569        O  0.10340583  0.80833326  0.66217505    -0.74200
C570        C  0.22236926  0.83254995  0.57680760     1.01700
C571        C  0.16176893  0.89547253  0.57684543     0.96600
O572        O  0.13269003  0.86381986  0.58120510    -0.79500
C573        C  0.33544460  0.80561457  0.76081003     0.06000
C574        C  0.37134623  0.83677716  0.75671893    -0.10200
C575        C  0.37715908  0.86706752  0.73607371     0.03500
C576        C  0.34609559  0.86531827  0.71898474    -0.08700
C577        C  0.30993260  0.83413926  0.72323269     0.06000
C578        C  0.30465832  0.80430685  0.74420491    -0.08100
H579        H  0.39487880  0.83758103  0.77001963     0.11600
H580        H  0.34964291  0.88758953  0.70208106     0.09100
H581        H  0.27679846  0.78017888  0.74749725     0.08900
C582        C  0.46371002  0.96713773  0.72285789     0.06000
C583        C  0.99233326  0.95853087  0.72265023    -0.10200
C584        C  0.03463491  0.50570382  0.76629662     0.03500
C585        C  0.02956753  0.53733451  0.76621745    -0.08700
C586        C  0.49764075  0.53461039  0.76836935     0.06000
C587        C  0.46659079  0.49775296  0.76834062    -0.08100
H588        H  0.98948919  0.93058533  0.72254025     0.11600
H589        H  0.05408129  0.56534557  0.76757746     0.09100
H590        H  0.43881303  0.49429870  0.76990470     0.08900
C591        C  0.02825544  0.69809033  0.73303209     0.06000
C592        C  0.03189406  0.66563217  0.73427389    -0.10200
C593        C  0.50749414  0.63465640  0.75927744     0.03500
C594        C  0.47781850  0.63456291  0.77672234    -0.08700
C595        C  0.47128022  0.66526099  0.77400144     0.06000
C596        C  0.49465035  0.69648290  0.75412176    -0.08100
H597        H  0.05398745  0.66493213  0.72028037     0.11600
H598        H  0.46013147  0.61123845  0.79288785     0.09100
H599        H  0.48976861  0.72028886  0.75207314     0.08900
C600        C  0.16601579  0.97783304  0.72645713     0.06000
C601        C  0.19217753  0.49803168  0.75462340    -0.10200
C602        C  0.18662249  0.52374604  0.77366489     0.03500
C603        C  0.15100410  0.52041321  0.77471237    -0.08700
C604        C  0.12075521  0.49159005  0.75630193     0.06000
C605        C  0.13286672  0.97957829  0.72370804    -0.08100
H606        H  0.21965483  0.50050053  0.75384127     0.11600
H607        H  0.14720024  0.53997534  0.79027499     0.09100
H608        H  0.11081349  0.95977311  0.70710343     0.08900
C609        C  0.07350311  0.51204498  0.76731400    -0.13600
C610        C  0.08222782  0.48610472  0.75635712    -0.28800
H611        H  0.09555712  0.53970288  0.77568265     0.15400
H612        H  0.09721806  0.03670845  0.75029920     0.16000
C613        C  0.51573771  0.60288482  0.76077785    -0.13600
C614        C  0.49042702  0.56713918  0.76938241    -0.28800
H615        H  0.54306143  0.60897179  0.75216198     0.15400
H616        H  0.95973653  0.56069764  0.77215842     0.16000
C617        C  0.41615060  0.89950371  0.73337282    -0.13600
C618        C  0.42490965  0.93403979  0.72185479    -0.28800
H619        H  0.43830693  0.89529381  0.74370436     0.15400
H620        H  0.40269605  0.93946124  0.71404052     0.16000
C621        C  0.07593260  0.75322546  0.69414592    -0.10400
C622        C  0.05383625  0.72963702  0.71288583    -0.12000
C623        C  0.17109794  0.92667551  0.68963825    -0.10400
C624        C  0.16980101  0.94989298  0.70745173    -0.12000
C625        C  0.27840666  0.83251215  0.70541704    -0.10400
C626        C  0.25329166  0.83180552  0.68887775    -0.12000
C627        C  0.16132668  0.92226477  0.55353996    -0.10400
C628        C  0.16181448  0.94723418  0.53672981    -0.12000
C629        C  0.05015207  0.71367570  0.54208975    -0.10400
C630        C  0.07376211  0.73953993  0.55869326    -0.12000
C631        C  0.06682818  0.98776220  0.00204821    -0.13600
C632        C  0.10196846  0.01687701  0.99873793    -0.28800
H633        H  0.06302285  0.96008865  0.00834618     0.15400
H634        H  0.11288079  0.54669809  0.49892090     0.16000
C635        C  0.00919575  0.57604786  0.02727696    -0.13600
C636        C  0.98322254  0.58454634  0.01612123    -0.28800
H637        H  0.03681268  0.59881745  0.03456747     0.15400
H638        H  0.45943868  0.55782542  0.48706950     0.16000
C639        C  0.24575285  0.83082426  0.55136971    -0.10400
C640        C  0.26837509  0.83147293  0.53210643    -0.12000
C641        C  0.39790927  0.91642667  0.49725134    -0.13600
C642        C  0.43255286  0.92285920  0.49051898    -0.28800
H643        H  0.39459424  0.93903128  0.50810175     0.15400
H644        H  0.43679356  0.89914129  0.98347049     0.16000
C645        C  0.22432443  0.56009488  0.96609912    -0.10400
C646        C  0.24792459  0.58218861  0.94743282    -0.12000
C647        C  0.24134036  0.57757592  0.81018887    -0.10400
C648        C  0.21718258  0.55324943  0.79276466    -0.12000
C649        C  0.42240721  0.67817527  0.94588921    -0.10400
C650        C  0.44522993  0.67614456  0.96366744    -0.12000
C651        C  0.44130099  0.66513377  0.79260029    -0.10400
C652        C  0.41736872  0.66517863  0.80982528    -0.12000
C653        C  0.32971551  0.75301086  0.80285323    -0.10400
C654        C  0.33072050  0.77563786  0.78285122    -0.12000
C655        C  0.32608224  0.75837545  0.94115915    -0.10400
C656        C  0.32679136  0.78261513  0.95914449    -0.12000
O657        O  0.90624571  0.19583030  0.40274051    -0.79000
C658        C  0.77199412  0.10390569  0.33219665     1.00400
O659        O  0.80416095  0.10744935  0.33404675    -0.68100
O660        O  0.87735291  0.14307438  0.34279121    -0.71700
Al661      Al  0.83603042  0.12442262  0.37263837     1.49000
C662        C  0.89656864  0.17405962  0.32786506     0.95700
O663        O  0.85886063  0.23879080  0.35029670    -0.77900
O664        O  0.80822228  0.21076175  0.40631685    -0.71400
Al665      Al  0.87801895  0.21266356  0.37660558     1.90100
O666        O  0.80008385  0.19614070  0.33908844    -0.70500
O667        O  0.77774604  0.13736996  0.41796389    -0.70400
O668        O  0.76296027  0.12265790  0.35115989    -0.76000
O669        O  0.79488843  0.09641409  0.40211103    -0.74200
O670        O  0.83521933  0.16798563  0.37588198    -1.10400
O671        O  0.86783169  0.13507457  0.41058419    -0.69600
C672        C  0.89813394  0.16504989  0.41697339     1.01200
C673        C  0.82881006  0.22785744  0.33378916     0.97600
Al674      Al  0.79119860  0.16683502  0.37842606     1.55600
O675        O  0.89527221  0.20327152  0.33595068    -0.74200
C676        C  0.77687953  0.10606873  0.42129811     1.01700
C677        C  0.83792243  0.23077513  0.42285940     0.96600
O678        O  0.86698391  0.22879164  0.41749526    -0.79500
C679        C  0.83833745  0.31250026  0.48235297     0.06000
C680        C  0.86936232  0.34928888  0.48102407    -0.10200
C681        C  0.87836177  0.36606677  0.01119020     0.03500
C682        C  0.84689345  0.36378526  0.02714804    -0.08700
C683        C  0.81140584  0.33124914  0.02340516     0.06000
C684        C  0.80716843  0.30054332  0.00402645    -0.08100
H685        H  0.89288871  0.35414839  0.46576516     0.11600
H686        H  0.84960144  0.38668616  0.04288073     0.09100
H687        H  0.77981051  0.27535722  0.00118461     0.08900
C688        C  0.99040500  0.02394126  0.49371407     0.06000
C689        C  0.96764972  0.50420126  0.02736160    -0.10200
C690        C  0.96342313  0.46770347  0.02637829     0.03500
C691        C  0.50428362  0.46186350  0.50107172    -0.08700
C692        C  0.53885726  0.49452765  0.50671863     0.06000
C693        C  0.53581681  0.02471401  0.51419102    -0.08100
H694        H  0.94278945  0.50685436  0.02855673     0.11600
H695        H  0.50307014  0.43461394  0.49942123     0.09100
H696        H  0.56177974  0.04983879  0.52136039     0.08900
C697        C  0.52401130  0.18139512  0.01997552     0.06000
C698        C  0.51914770  0.14466506  0.02079191    -0.10200
C699        C  0.48906700  0.11475256  0.50258282     0.03500
C700        C  0.98089268  0.12941598  0.47765797    -0.08700
C701        C  0.97728436  0.16202358  0.47747604     0.06000
C702        C  0.49680370  0.18775525  0.50165965    -0.08100
H703        H  0.53794767  0.13971273  0.03633342     0.11600
H704        H  0.96177197  0.10538484  0.46235142     0.09100
H705        H  0.49977867  0.21580853  0.50112170     0.08900
C706        C  0.66196731  0.46923750  0.01461960     0.06000
C707        C  0.63076871  0.47448018  0.01594758    -0.10200
C708        C  0.63967763  0.51035065  0.50484175     0.03500
C709        C  0.66866092  0.03612846  0.48790331    -0.08700
C710        C  0.69987430  0.03118791  0.48537322     0.06000
C711        C  0.70028230  0.49675948  0.50028435    -0.08100
H712        H  0.60727807  0.45519686  0.03093766     0.11600
H713        H  0.66850146  0.05956934  0.47508867     0.09100
H714        H  0.72349647  0.49138001  0.49819616     0.08900
O715        O  0.59550928  0.28589150  0.09461483    -0.79000
C716        C  0.72688876  0.32895966  0.16767847     1.00400
O717        O  0.69495721  0.29998208  0.16428545    -0.68100
O718        O  0.62198220  0.26192852  0.15257129    -0.71700
Al719      Al  0.66531659  0.28607776  0.12447377     1.49000
C720        C  0.60329347  0.27401563  0.16793787     0.95700
O721        O  0.64175497  0.37771662  0.14595269    -0.77900
O722        O  0.69351331  0.40024542  0.09181110    -0.71400
Al723      Al  0.62347739  0.33172630  0.12032528     1.90100
O724        O  0.69965792  0.39350345  0.15954806    -0.70500
O725        O  0.72606834  0.35916998  0.08186765    -0.70400
O726        O  0.73698831  0.35750638  0.14929955    -0.76000
O727        O  0.70848610  0.30069883  0.09697230    -0.74200
O728        O  0.66631825  0.33047703  0.12180627    -1.10400
O729        O  0.63556854  0.26630229  0.08500819    -0.69600
C730        C  0.60452220  0.26448135  0.07938758     1.01200
C731        C  0.67109458  0.39685600  0.16340659     0.97600
Al732      Al  0.71021135  0.37382779  0.12070115     1.55600
O733        O  0.60635294  0.30561378  0.16111406    -0.74200
C734        C  0.72803209  0.32931502  0.07903245     1.01700
C735        C  0.66412710  0.38964478  0.07445056     0.96600
O736        O  0.63518438  0.35813718  0.07930808    -0.79500
C737        C  0.83489251  0.30572679  0.26652323     0.06000
C738        C  0.87092029  0.33669832  0.26180660    -0.10200
C739        C  0.87672828  0.36608378  0.23986290     0.03500
C740        C  0.84565779  0.36345378  0.22213684    -0.08700
C741        C  0.80954490  0.33263150  0.22711842     0.06000
C742        C  0.80418631  0.30381279  0.24931952    -0.08100
H743        H  0.89448378  0.33802386  0.27547415     0.11600
H744        H  0.84917119  0.38476290  0.20409936     0.09100
H745        H  0.77629794  0.27987923  0.25300039     0.08900
C746        C  0.96244315  0.46576348  0.22214522     0.06000
C747        C  0.50588547  0.46919013  0.26752904    -0.10200
C748        C  0.54105204  0.01131827  0.25182061     0.03500
C749        C  0.54224151  0.04619832  0.24838518    -0.08700
C750        C  0.00183340  0.03969994  0.22781920     0.06000
C751        C  0.96594660  0.00712589  0.22710584    -0.08100
H752        H  0.50855406  0.44402794  0.26814567     0.11600
H753        H  0.56875297  0.07238088  0.25150418     0.09100
H754        H  0.94105138  0.00968138  0.22506682     0.08900
C755        C  0.52254686  0.19786850  0.22892785     0.06000
C756        C  0.51793194  0.16140782  0.22656354    -0.10200
C757        C  0.98729926  0.12666788  0.23817207     0.03500
C758        C  0.96295944  0.13318871  0.25776449    -0.08700
C759        C  0.96754869  0.16957891  0.26074224     0.06000
C760        C  0.99662030  0.20003701  0.24387345    -0.08100
H761        H  0.53629482  0.15682708  0.21044097     0.11600
H762        H  0.94058064  0.10989056  0.27121616     0.09100
H763        H  0.00033290  0.22829720  0.24629037     0.08900
C764        C  0.66532240  0.47114024  0.22813506     0.06000
C765        C  0.69503503  0.99786238  0.25468063    -0.10200
C766        C  0.68834871  0.02248784  0.27405830     0.03500
C767        C  0.65211337  0.01779345  0.27509423    -0.08700
C768        C  0.62243533  0.98869615  0.25616659     0.06000
C769        C  0.62950258  0.46669758  0.23149580    -0.08100
H770        H  0.72302074  0.00160235  0.25364642     0.11600
H771        H  0.64739903  0.03674845  0.29068897     0.09100
H772        H  0.60608328  0.44418750  0.21773202     0.08900
C773        C  0.57734617  0.01271301  0.25928778    -0.13600
C774        C  0.58405813  0.98394037  0.25403689    -0.28800
H775        H  0.60065879  0.04022269  0.26648223     0.15400
H776        H  0.56236793  0.45784783  0.24557449     0.16000
C777        C  0.98121534  0.08740982  0.23654843    -0.13600
C778        C  0.00749087  0.07885350  0.22704623    -0.28800
H779        H  0.95466390  0.06506249  0.24578932     0.15400
H780        H  0.54118248  0.10983316  0.23386884     0.16000
C781        C  0.91561717  0.39851340  0.23609105    -0.13600
C782        C  0.92375033  0.43253674  0.22353757    -0.28800
H783        H  0.93814201  0.39473014  0.24614347     0.15400
H784        H  0.90110115  0.43747042  0.21613247     0.16000
C785        C  0.57640775  0.25034173  0.19224703    -0.10400
C786        C  0.55201465  0.22806026  0.21020547    -0.12000
C787        C  0.67191199  0.42352730  0.18742945    -0.10400
C788        C  0.67031480  0.44568830  0.20648209    -0.12000
C789        C  0.77813730  0.33023531  0.20867671    -0.10400
C790        C  0.75332531  0.32903526  0.19142682    -0.12000
C791        C  0.66298676  0.41518118  0.05043283    -0.10400
C792        C  0.66221800  0.43898852  0.03306210    -0.12000
C793        C  0.55393221  0.21164175  0.03919278    -0.10400
C794        C  0.57800039  0.23637050  0.05647096    -0.12000
C795        C  0.57223977  0.48981243  0.51045571    -0.13600
C796        C  0.60759064  0.51748033  0.50496795    -0.28800
H797        H  0.56685923  0.46124903  0.51516408     0.15400
H798        H  0.61148627  0.04304418  0.99345278     0.16000
C799        C  0.50634628  0.06491493  0.51619227    -0.13600
C800        C  0.48402591  0.07577672  0.50071141    -0.28800
H801        H  0.52975521  0.08491028  0.53154218     0.15400
H802        H  0.04037477  0.09273918  0.00976751     0.16000
C803        C  0.75478935  0.32864503  0.05660809    -0.10400
C804        C  0.77966862  0.32919893  0.04041220    -0.12000
C805        C  0.91679355  0.39973303  0.01390997    -0.13600
C806        C  0.92479123  0.43412462  0.02569703    -0.28800
H807        H  0.93927656  0.39618732  0.00395010     0.15400
H808        H  0.94209820  0.40106728  0.49040655     0.16000
C809        C  0.73073429  0.05725460  0.46516561    -0.10400
C810        C  0.75339039  0.07991903  0.44621791    -0.12000
C811        C  0.74419032  0.07670948  0.30954170    -0.10400
C812        C  0.71888143  0.05251651  0.29287227    -0.12000
C813        C  0.92470120  0.16387806  0.43991933    -0.10400
C814        C  0.94821588  0.16287540  0.45756512    -0.12000
C815        C  0.94277885  0.17514834  0.28218176    -0.10400
C816        C  0.92140504  0.17612288  0.30201234    -0.12000
C817        C  0.82763701  0.25275445  0.30901495    -0.10400
C818        C  0.82968340  0.27607080  0.28924512    -0.12000
C819        C  0.83885543  0.25777669  0.44667242    -0.10400
C820        C  0.83861896  0.28206543  0.46393092    -0.12000
O821        O  0.90133809  0.19679947  0.91473617    -0.79000
C822        C  0.77598650  0.10622697  0.82947976     1.00400
O823        O  0.79598642  0.09581669  0.84520070    -0.68100
O824        O  0.86778646  0.13704901  0.83213022    -0.71700
Al825      Al  0.84036411  0.12260718  0.87234852     1.49000
C826        C  0.89845088  0.16715905  0.82774858     0.95700
O827        O  0.86902766  0.22995932  0.83899909    -0.77900
O828        O  0.80677509  0.19227503  0.91758031    -0.71400
Al829      Al  0.88226307  0.21048558  0.87675995     1.90100
O830        O  0.81012227  0.20959209  0.85099908    -0.70500
O831        O  0.77061317  0.11992421  0.90292962    -0.70400
O832        O  0.77768293  0.13731083  0.83605398    -0.76000
O833        O  0.81312928  0.10318949  0.91235316    -0.74200
O834        O  0.83931955  0.16606246  0.87533315    -1.10400
O835        O  0.88492460  0.13891665  0.89865584    -0.69600
C836        C  0.90435815  0.16749092  0.91696648     1.01200
C837        C  0.83903935  0.23071378  0.83455836     0.97600
Al838      Al  0.79522710  0.16484899  0.87675703     1.55600
O839        O  0.90867753  0.19582885  0.84637707    -0.74200
C840        C  0.78209293  0.10076019  0.91871554     1.01700
C841        C  0.83561035  0.22363482  0.92386074     0.96600
O842        O  0.86515237  0.23490214  0.90726012    -0.79500
C843        C  0.83837710  0.30233746  0.98850632     0.06000
C844        C  0.87362141  0.33491850  0.99209402    -0.10200
C845        C  0.86965901  0.37936680  0.49898115     0.03500
C846        C  0.83774690  0.37215090  0.51700361    -0.08700
C847        C  0.80661184  0.33551203  0.51818638     0.06000
C848        C  0.80695571  0.30562040  0.50101917    -0.08100
H849        H  0.89750106  0.33606506  0.97972110     0.11600
H850        H  0.83747648  0.39494792  0.53089758     0.09100
H851        H  0.78293514  0.27720279  0.50213651     0.08900
C852        C  0.99702443  0.02262908  0.98341110     0.06000
C853        C  0.97377588  0.49719811  0.50353336    -0.10200
C854        C  0.97281579  0.46201392  0.50178494     0.03500
C855        C  0.49612986  0.46457233  0.01343614    -0.08700
C856        C  0.53259587  0.49563533  0.01127262     0.06000
C857        C  0.53911693  0.02565112  0.00788038    -0.08100
H858        H  0.94809551  0.49788323  0.50023194     0.11600
H859        H  0.49261473  0.43648496  0.01590398     0.09100
H860        H  0.56566268  0.05116271  0.01265936     0.08900
C861        C  0.52233231  0.18145304  0.52004186     0.06000
C862        C  0.51848557  0.14512922  0.52062676    -0.10200
C863        C  0.48993998  0.11486119  0.00211580     0.03500
C864        C  0.98556082  0.12809551  0.97457179    -0.08700
C865        C  0.98326089  0.16149486  0.97549357     0.06000
C866        C  0.49937942  0.18853742  0.00098002    -0.08100
H867        H  0.53868761  0.14129452  0.53505240     0.11600
H868        H  0.96531394  0.10463318  0.95940571     0.09100
H869        H  0.50307641  0.21687916  0.00033523     0.08900
C870        C  0.66942946  0.47328478  0.52008642     0.06000
C871        C  0.63947252  0.48033106  0.52265384    -0.10200
C872        C  0.63070832  0.50474702  0.99867500     0.03500
C873        C  0.67187501  0.03461728  0.98339209    -0.08700
C874        C  0.70323033  0.02964450  0.98294528     0.06000
C875        C  0.69355409  0.49431069  0.99653027    -0.08100
H876        H  0.61635677  0.46247900  0.53872385     0.11600
H877        H  0.67201076  0.05729554  0.96899765     0.09100
H878        H  0.71777179  0.49040140  0.99577038     0.08900
O879        O  0.59415594  0.28543079  0.59537726    -0.79000
C880        C  0.72306466  0.32184897  0.67024479     1.00400
O881        O  0.69121720  0.29327690  0.66520842    -0.68100
O882        O  0.61872790  0.25750004  0.65226507    -0.71700
Al883      Al  0.66244593  0.28224337  0.62503057     1.49000
C884        C  0.59990280  0.26900733  0.66813323     0.95700
O885        O  0.64061144  0.37430347  0.65035191    -0.77900
O886        O  0.69408317  0.39878520  0.59722924    -0.71400
Al887      Al  0.62219882  0.32966990  0.62292361     1.90100
O888        O  0.69792419  0.38855042  0.66462910    -0.70500
O889        O  0.72500988  0.35694941  0.58580495    -0.70400
O890        O  0.73413221  0.35149898  0.65316932    -0.76000
O891        O  0.70572541  0.29728894  0.59774232    -0.74200
O892        O  0.66447426  0.32728564  0.62439541    -1.10400
O893        O  0.63338193  0.26499240  0.58505869    -0.69600
C894        C  0.60278086  0.26411056  0.57951674     1.01200
C895        C  0.66970965  0.39257881  0.66827222     0.97600
Al896      Al  0.70889020  0.37013071  0.62513986     1.55600
O897        O  0.60336985  0.30109711  0.66260356    -0.74200
C898        C  0.72566786  0.32669152  0.58087164     1.01700
C899        C  0.66550138  0.38986959  0.57922341     0.96600
O900        O  0.63571591  0.35866937  0.58296740    -0.79500
C901        C  0.83601520  0.30916473  0.77292367     0.06000
C902        C  0.86701871  0.34599816  0.77404290    -0.10200
C903        C  0.86719847  0.37520293  0.75490342     0.03500
C904        C  0.83543041  0.36694064  0.73534680    -0.08700
C905        C  0.80425642  0.33026565  0.73436898     0.06000
C906        C  0.80459995  0.30126416  0.75304045    -0.08100
H907        H  0.89038810  0.35161261  0.79037842     0.11600
H908        H  0.83497025  0.38915198  0.72067930     0.09100
H909        H  0.78051594  0.27283882  0.75228675     0.08900
C910        C  0.96657054  0.46397803  0.76517590     0.06000
C911        C  0.50754257  0.47093758  0.76655726    -0.10200
C912        C  0.53194345  0.99513179  0.72536226     0.03500
C913        C  0.53566437  0.03151127  0.72639943    -0.08700
C914        C  0.00081326  0.03158935  0.72157829     0.06000
C915        C  0.96485302  0.99923039  0.72020257    -0.08100
H916        H  0.51084930  0.44613659  0.76679466     0.11600
H917        H  0.56317145  0.05660742  0.72704905     0.09100
H918        H  0.94015461  0.00214525  0.71826702     0.08900
C919        C  0.51992161  0.18886382  0.72726356     0.06000
C920        C  0.51627449  0.15280287  0.72409870    -0.10200
C921        C  0.98781914  0.11897689  0.73565625     0.03500
C922        C  0.96360609  0.12506101  0.75586895    -0.08700
C923        C  0.96903035  0.16159000  0.76061369     0.06000
C924        C  0.99880557  0.19260750  0.74497601    -0.08100
H925        H  0.53493709  0.14930761  0.70750509     0.11600
H926        H  0.94067476  0.10130681  0.76838557     0.09100
H927        H  0.00309028  0.22093721  0.74871896     0.08900
C928        C  0.66484157  0.46912952  0.73068812     0.06000
C929        C  0.69777210  0.00457199  0.74698813    -0.10200
C930        C  0.69516026  0.03295906  0.76454421     0.03500
C931        C  0.66250524  0.03549767  0.76199234    -0.08700
C932        C  0.63207828  0.00992232  0.74184457     0.06000
C933        C  0.62980672  0.46696228  0.73207469    -0.08100
H934        H  0.72303431  0.00254591  0.74902053     0.11600
H935        H  0.66080180  0.05753472  0.77585473     0.09100
H936        H  0.60640082  0.44496900  0.71789553     0.08900
C937        C  0.56507086  0.98942314  0.72612693    -0.13600
C938        C  0.59844718  0.01476990  0.73988437    -0.28800
H939        H  0.56084555  0.96257091  0.71663606     0.15400
H940        H  0.56395555  0.46234305  0.74141316     0.16000
C941        C  0.98093195  0.07953140  0.73222479    -0.13600
C942        C  0.00687996  0.07088473  0.72191756    -0.28800
H943        H  0.95416079  0.05703792  0.74092847     0.15400
H944        H  0.53698190  0.09820661  0.72166571     0.16000
C945        C  0.89927689  0.41484573  0.75524555    -0.13600
C946        C  0.93426916  0.42448089  0.76546459    -0.28800
H947        H  0.89395275  0.43648478  0.74511214     0.15400
H948        H  0.94033142  0.40240644  0.77282524     0.16000
C949        C  0.57267887  0.24401452  0.69163113    -0.10400
C950        C  0.54869764  0.22014834  0.70892274    -0.12000
C951        C  0.67075111  0.41941470  0.69223523    -0.10400
C952        C  0.66922741  0.44226699  0.71045565    -0.12000
C953        C  0.77230445  0.32300222  0.71379014    -0.10400
C954        C  0.74809255  0.32067572  0.69495327    -0.12000
C955        C  0.66667134  0.41696751  0.55551638    -0.10400
C956        C  0.66834989  0.44214442  0.53830757    -0.12000
C957        C  0.55218201  0.21214033  0.53886889    -0.10400
C958        C  0.57620209  0.23684578  0.55615540    -0.12000
C959        C  0.56457693  0.48816131  0.01172397    -0.13600
C960        C  0.59861062  0.51216396  0.99918765    -0.28800
H961        H  0.55877315  0.46085249  0.02122414     0.15400
H962        H  0.60850519  0.04372439  0.50078013     0.16000
C963        C  0.51041480  0.06664692  0.00983523    -0.13600
C964        C  0.48397543  0.07549469  0.00102386    -0.28800
H965        H  0.53769050  0.08911575  0.01818618     0.15400
H966        H  0.04086697  0.09895659  0.50848249     0.16000
C967        C  0.75104986  0.32637539  0.55675168    -0.10400
C968        C  0.77507791  0.32886828  0.53822274    -0.12000
C969        C  0.90294781  0.41829054  0.50048879    -0.13600
C970        C  0.93806088  0.42490661  0.49598253    -0.28800
H971        H  0.89851586  0.44118302  0.50869461     0.15400
H972        H  0.90222770  0.43886939  0.03324330     0.16000
C973        C  0.73471808  0.05409939  0.96272724    -0.10400
C974        C  0.75839411  0.07513812  0.94369115    -0.12000
C975        C  0.74960898  0.08133760  0.80476328    -0.10400
C976        C  0.72565015  0.05936713  0.78571252    -0.12000
C977        C  0.93132236  0.16659192  0.93962231    -0.10400
C978        C  0.95460344  0.16420606  0.95650908    -0.12000
C979        C  0.94431339  0.16679640  0.78241774    -0.10400
C980        C  0.92311682  0.16818536  0.80219181    -0.12000
C981        C  0.83779593  0.25687453  0.81114171    -0.10400
C982        C  0.83644428  0.27990375  0.79300143    -0.12000
C983        C  0.83437177  0.24807296  0.94915647    -0.10400
C984        C  0.83471810  0.27138232  0.96809264    -0.12000
O985        O  0.89351623  0.69694337  0.41564207    -0.79000
C986        C  0.77250044  0.60283777  0.32802537     1.00400
O987        O  0.79348217  0.59375198  0.34387941    -0.68100
O988        O  0.86561593  0.63677735  0.33231746    -0.71700
Al989      Al  0.83701577  0.62173944  0.37193824     1.49000
C990        C  0.89665175  0.66682164  0.32936307     0.95700
O991        O  0.86436074  0.72635642  0.33638640    -0.77900
O992        O  0.80041785  0.69048077  0.41479658    -0.71400
Al993      Al  0.87669818  0.70928762  0.37583604     1.90100
O994        O  0.80508222  0.70623173  0.34743421    -0.70500
O995        O  0.76578254  0.61753775  0.40145287    -0.70400
O996        O  0.77311433  0.63349087  0.33415469    -0.76000
O997        O  0.80891596  0.60170935  0.41123010    -0.74200
O998        O  0.83443817  0.66432990  0.37407286    -1.10400
O999        O  0.88086938  0.63988350  0.39985188    -0.69600
C1000       C  0.89744949  0.66831622  0.41906698     1.01200
C1001       C  0.83434929  0.72679434  0.33104261     0.97600
Al1002     Al  0.78995810  0.66209098  0.37441974     1.55600
O1003       O  0.90576731  0.69498005  0.34834624    -0.74200
C1004       C  0.77760583  0.59866692  0.41734290     1.01700
C1005       C  0.82818923  0.72295543  0.41996653     0.96600
O1006       O  0.85779166  0.73449750  0.40346214    -0.79500
C1007       C  0.82447510  0.80280079  0.47914624     0.06000
C1008       C  0.85552512  0.83952645  0.47682814    -0.10200
C1009       C  0.86217830  0.87175751  0.99092932     0.03500
C1010       C  0.83247916  0.86752048  0.01071356    -0.08700
C1011       C  0.80051095  0.83194428  0.01445850     0.06000
C1012       C  0.79766259  0.80010634  0.99818519    -0.08100
H1013       H  0.87872671  0.84410778  0.46121200     0.11600
H1014       H  0.83452249  0.89189034  0.02380183     0.09100
H1015       H  0.77288042  0.77250142  0.00120468     0.08900
C1016       C  0.00809604  0.53119074  0.50943103     0.06000
C1017       C  0.96413655  0.98738467  0.97952831    -0.10200
C1018       C  0.96460102  0.95334014  0.98403545     0.03500
C1019       C  0.50094429  0.95786642  0.50038198    -0.08700
C1020       C  0.53507594  0.99029789  0.50829543     0.06000
C1021       C  0.54038074  0.52977437  0.50916590    -0.08100
H1022       H  0.93817514  0.98672074  0.97310564     0.11600
H1023       H  0.50029621  0.93114174  0.49633079     0.09100
H1024       H  0.56684930  0.55522730  0.51438249     0.08900
C1025       C  0.52590884  0.69207696  0.01921933     0.06000
C1026       C  0.52216812  0.65586633  0.01883159    -0.10200
C1027       C  0.49033809  0.61857738  0.50042250     0.03500
C1028       C  0.96404275  0.62274018  0.48611283    -0.08700
C1029       C  0.96762757  0.65880906  0.48521193     0.06000
C1030       C  0.49773157  0.69142222  0.50142357    -0.08100
H1031       H  0.54129779  0.65100875  0.03400336     0.11600
H1032       H  0.94202545  0.59986343  0.47143768     0.09100
H1033       H  0.50064228  0.71945512  0.50163253     0.08900
C1034       C  0.67168551  0.97570140  0.01956327     0.06000
C1035       C  0.64044635  0.98074929  0.02018265    -0.10200
C1036       C  0.63723024  0.01046157  0.50596923     0.03500
C1037       C  0.67092803  0.53395586  0.48560386    -0.08700
C1038       C  0.70100990  0.52719923  0.48317186     0.06000
C1039       C  0.69997862  0.00043132  0.50122879    -0.08100
H1040       H  0.61689397  0.96215910  0.03555275     0.11600
H1041       H  0.67147713  0.55718453  0.47177783     0.09100
H1042       H  0.72401979  0.99638432  0.49911559     0.08900
O1043       O  0.59710469  0.79204606  0.09824671    -0.79000
C1044       C  0.72766619  0.82765860  0.17054667     1.00400
O1045       O  0.69539941  0.79930789  0.16670965    -0.68100
O1046       O  0.62264848  0.76433462  0.15561317    -0.71700
Al1047     Al  0.66527215  0.78772235  0.12725888     1.49000
C1048       C  0.60450606  0.77660174  0.17150415     0.95700
O1049       O  0.64572641  0.88091854  0.15245152    -0.77900
O1050       O  0.69778032  0.90436688  0.09886562    -0.71400
Al1051     Al  0.62612775  0.83614983  0.12532219     1.90100
O1052       O  0.70294427  0.89406113  0.16603731    -0.70500
O1053       O  0.72700393  0.86131657  0.08624442    -0.70400
O1054       O  0.73841001  0.85684536  0.15300843    -0.76000
O1055       O  0.70722596  0.80163835  0.09888512    -0.74200
O1056       O  0.66795761  0.83298071  0.12627371    -1.10400
O1057       O  0.63501039  0.76999119  0.08799794    -0.69600
C1058       C  0.60508929  0.77039679  0.08222928     1.01200
C1059       C  0.67486470  0.89813090  0.17049163     0.97600
Al1060     Al  0.71265848  0.87544341  0.12606975     1.55600
O1061       O  0.60772276  0.80840003  0.16523224    -0.74200
C1062       C  0.72654670  0.83048358  0.08122295     1.01700
C1063       C  0.66913546  0.89515467  0.08093142     0.96600
O1064       O  0.63928932  0.86426436  0.08514587    -0.79500
C1065       C  0.83838712  0.80643311  0.26742372     0.06000
C1066       C  0.87309051  0.83969243  0.26509339    -0.10200
C1067       C  0.87725705  0.86995083  0.24516684     0.03500
C1068       C  0.84569428  0.86610413  0.22737373    -0.08700
C1069       C  0.81080373  0.83274598  0.22996442     0.06000
C1070       C  0.80720012  0.80294218  0.24996389    -0.08100
H1071       H  0.89698806  0.84196791  0.27891645     0.11600
H1072       H  0.84783175  0.88835565  0.21117154     0.09100
H1073       H  0.78030386  0.77711617  0.25182699     0.08900
C1074       C  0.96169073  0.97071984  0.22882556     0.06000
C1075       C  0.50621578  0.97739417  0.24808043    -0.10200
C1076       C  0.53800981  0.50553414  0.26648262     0.03500
C1077       C  0.53355352  0.53763253  0.26701469    -0.08700
C1078       C  0.00259310  0.53475229  0.22043457     0.06000
C1079       C  0.96673386  0.50226495  0.22084321    -0.08100
H1080       H  0.50501969  0.95049929  0.25133742     0.11600
H1081       H  0.55836727  0.56542524  0.26722483     0.09100
H1082       H  0.94193353  0.50511691  0.22015393     0.08900
C1083       C  0.53066637  0.69809583  0.23483418     0.06000
C1084       C  0.53520674  0.66629211  0.23728725    -0.10200
C1085       C  0.99110072  0.62223876  0.23956063     0.03500
C1086       C  0.96606395  0.62745946  0.25941117    -0.08700
C1087       C  0.97150859  0.66379190  0.26552211     0.06000
C1088       C  0.00232562  0.69558909  0.25179199    -0.08100
H1089       H  0.55809924  0.66607604  0.22427228     0.11600
H1090       H  0.94228698  0.60310926  0.27045494     0.09100
H1091       H  0.00657281  0.72376099  0.25649652     0.08900
C1092       C  0.66568981  0.96854428  0.23648624     0.06000
C1093       C  0.69583962  0.50015785  0.24566264    -0.10200
C1094       C  0.69042709  0.52451020  0.26676880     0.03500
C1095       C  0.65446065  0.51992628  0.27016185    -0.08700
C1096       C  0.62366243  0.49114905  0.25220286     0.06000
C1097       C  0.62960523  0.96386292  0.23740110    -0.08100
H1098       H  0.72356437  0.50353263  0.24315068     0.11600
H1099       H  0.65072649  0.53834258  0.28731162     0.09100
H1100       H  0.60725738  0.94144199  0.22262183     0.08900
C1101       C  0.57677859  0.51140965  0.26547651    -0.13600
C1102       C  0.58485973  0.48484808  0.25479520    -0.28800
H1103       H  0.59950621  0.53953286  0.27191303     0.15400
H1104       H  0.56167584  0.95709483  0.24439987     0.16000
C1105       C  0.98404093  0.58279682  0.23484268    -0.13600
C1106       C  0.00847615  0.57394491  0.22105250    -0.28800
H1107       H  0.95838908  0.56022231  0.24534273     0.15400
H1108       H  0.46390411  0.56156388  0.27523043     0.16000
C1109       C  0.91527164  0.90416914  0.24348590    -0.13600
C1110       C  0.92317368  0.93720178  0.22896437    -0.28800
H1111       H  0.93777128  0.90225443  0.25610112     0.15400
H1112       H  0.90081931  0.94093670  0.21849813     0.16000
C1113       C  0.57859621  0.75288428  0.19621647    -0.10400
C1114       C  0.55632927  0.72950744  0.21485439    -0.12000
C1115       C  0.67572476  0.92334519  0.19589633    -0.10400
C1116       C  0.67266412  0.94414302  0.21542921    -0.12000
C1117       C  0.77887184  0.82876806  0.21134893    -0.10400
C1118       C  0.75371765  0.82675932  0.19410506    -0.12000
C1119       C  0.67023838  0.92145779  0.05666790    -0.10400
C1120       C  0.67141153  0.94572740  0.03870877    -0.12000
C1121       C  0.55502495  0.72159965  0.03942054    -0.10400
C1122       C  0.57872280  0.74470411  0.05796285    -0.12000
C1123       C  0.56907202  0.98658161  0.51059183    -0.13600
C1124       C  0.60409133  0.01572919  0.50660339    -0.28800
H1125       H  0.56462613  0.95804103  0.51306559     0.15400
H1126       H  0.60308909  0.53817510  0.98754775     0.16000
C1127       C  0.51162163  0.57095710  0.50833222    -0.13600
C1128       C  0.48524407  0.57957408  0.49860450    -0.28800
H1129       H  0.53844985  0.59349016  0.51752261     0.15400
H1130       H  0.95681722  0.56199319  0.00613358     0.16000
C1131       C  0.74967188  0.82851854  0.05585073    -0.10400
C1132       C  0.77143954  0.82850362  0.03607453    -0.12000
C1133       C  0.89589314  0.90997311  0.98879133    -0.13600
C1134       C  0.93018827  0.91555634  0.98189852    -0.28800
H1135       H  0.89277663  0.93394614  0.99619902     0.15400
H1136       H  0.92899743  0.89235094  0.48677308     0.16000
C1137       C  0.73166551  0.55115734  0.46189676    -0.10400
C1138       C  0.75426718  0.57263711  0.44230718    -0.12000
C1139       C  0.74593035  0.57675945  0.30393113    -0.10400
C1140       C  0.72144585  0.55341776  0.28601307    -0.12000
C1141       C  0.92199485  0.66804401  0.44453184    -0.10400
C1142       C  0.94281372  0.66513178  0.46412490    -0.12000
C1143       C  0.94543293  0.66787557  0.28645395    -0.10400
C1144       C  0.92291478  0.66840482  0.30518496    -0.12000
C1145       C  0.83393040  0.75248897  0.30691055    -0.10400
C1146       C  0.83501173  0.77615749  0.28821222    -0.12000
C1147       C  0.82557652  0.74826555  0.44359018    -0.10400
C1148       C  0.82425788  0.77199060  0.46086396    -0.12000
O1149       O  0.89334398  0.69881980  0.91627203    -0.79000
C1150       C  0.77256773  0.60116010  0.82979905     1.00400
O1151       O  0.79325399  0.59245771  0.84669840    -0.68100
O1152       O  0.86561288  0.63533645  0.83554631    -0.71700
Al1153     Al  0.83651916  0.62144223  0.87498708     1.49000
C1154       C  0.89591616  0.66591467  0.83144147     0.95700
O1155       O  0.86212735  0.72477732  0.83600448    -0.77900
O1156       O  0.79839993  0.68955095  0.91468128    -0.71400
Al1157     Al  0.87523755  0.70914202  0.87607536     1.90100
O1158       O  0.80304687  0.70456107  0.84738991    -0.70500
O1159       O  0.76420851  0.61670337  0.90164975    -0.70400
O1160       O  0.77307060  0.63197533  0.83470942    -0.76000
O1161       O  0.80773128  0.60232489  0.91436462    -0.74200
O1162       O  0.83343697  0.66379872  0.87529349    -1.10400
O1163       O  0.88034911  0.64092669  0.90335706    -0.69600
C1164       C  0.89766252  0.67060268  0.92105985     1.01200
C1165       C  0.83191796  0.72476633  0.83052165     0.97600
Al1166     Al  0.78861456  0.66092296  0.87467713     1.55600
O1167       O  0.90437723  0.69479600  0.84916064    -0.74200
C1168       C  0.77576720  0.59852872  0.91881328     1.01700
C1169       C  0.82612432  0.72210713  0.91966320     0.96600
O1170       O  0.85568448  0.73394696  0.90305664    -0.79500
C1171       C  0.82691332  0.80407942  0.97794164     0.06000
C1172       C  0.85898105  0.83977784  0.97413909    -0.10200
C1173       C  0.85623652  0.87009866  0.49417613     0.03500
C1174       C  0.82512398  0.86350758  0.51301797    -0.08700
C1175       C  0.79420593  0.82697900  0.51560449     0.06000
C1176       C  0.79378631  0.79649741  0.49870016    -0.08100
H1177       H  0.88092151  0.84240851  0.95777647     0.11600
H1178       H  0.82537149  0.88680034  0.52652643     0.09100
H1179       H  0.76983986  0.76814905  0.50077627     0.08900
C1180       C  0.00351357  0.53684489  0.02705459     0.06000
C1181       C  0.95737602  0.98849701  0.49035138    -0.10200
C1182       C  0.95819908  0.95441392  0.49323386     0.03500
C1183       C  0.50304277  0.95784665  0.99889916    -0.08700
C1184       C  0.53779659  0.99067357  0.00383363     0.06000
C1185       C  0.53760180  0.53250064  0.00981865    -0.08100
H1186       H  0.93116546  0.98777578  0.48514709     0.11600
H1187       H  0.50191961  0.93073528  0.99607582     0.09100
H1188       H  0.56552745  0.55696061  0.00944360     0.08900
C1189       C  0.52163953  0.68402649  0.52115866     0.06000
C1190       C  0.51785909  0.64772134  0.52088927    -0.10200
C1191       C  0.49334843  0.62624416  0.99988681     0.03500
C1192       C  0.96562055  0.63000324  0.99241034    -0.08700
C1193       C  0.97011244  0.66628141  0.98874718     0.06000
C1194       C  0.50063059  0.69901259  0.00105412    -0.08100
H1195       H  0.53606598  0.64250295  0.53702687     0.11600
H1196       H  0.94351233  0.60642258  0.97843078     0.09100
H1197       H  0.50338566  0.72697619  0.00155892     0.08900
C1198       C  0.66881436  0.97493986  0.51983728     0.06000
C1199       C  0.63787366  0.98027663  0.52251678    -0.10200
C1200       C  0.63998977  0.00988515  0.00156013     0.03500
C1201       C  0.66273441  0.52968178  0.98061116    -0.08700
C1202       C  0.69399784  0.52458549  0.97963250     0.06000
C1203       C  0.70312700  0.00011376  0.00095373    -0.08100
H1204       H  0.61457335  0.96094645  0.53778482     0.11600
H1205       H  0.66339560  0.55319967  0.96721621     0.09100
H1206       H  0.72730718  0.99613190  0.00046140     0.08900
O1207       O  0.59119719  0.78844710  0.59793255    -0.79000
C1208       C  0.72199111  0.82616452  0.67201905     1.00400
O1209       O  0.68948915  0.79797964  0.66906463    -0.68100
O1210       O  0.61652905  0.76273389  0.65826408    -0.71700
Al1211     Al  0.65902733  0.78473273  0.62963328     1.49000
C1212       C  0.59759128  0.77511261  0.67263348     0.95700
O1213       O  0.63981170  0.87912349  0.65059925    -0.77900
O1214       O  0.69237941  0.90049426  0.59687009    -0.71400
Al1215     Al  0.62004670  0.83343387  0.62438219     1.90100
O1216       O  0.69732657  0.89317204  0.66430013    -0.70500
O1217       O  0.72070853  0.85616023  0.58636893    -0.70400
O1218       O  0.73254529  0.85467576  0.65360526    -0.76000
O1219       O  0.70073374  0.79706059  0.60114470    -0.74200
O1220       O  0.66181363  0.83003904  0.62658289    -1.10400
O1221       O  0.62851215  0.76500600  0.59084500    -0.69600
C1222       C  0.59885588  0.76541725  0.58386149     1.01200
C1223       C  0.66941960  0.89783424  0.66786325     0.97600
Al1224     Al  0.70674034  0.87230874  0.62542619     1.55600
O1225       O  0.60059659  0.80649870  0.66478827    -0.74200
C1226       C  0.71987553  0.82496735  0.58241091     1.01700
C1227       C  0.66385912  0.89149442  0.57890349     0.96600
O1228       O  0.63374219  0.86087835  0.58348831    -0.79500
C1229       C  0.83415827  0.80182031  0.76462411     0.06000
C1230       C  0.86958453  0.83341063  0.75978057    -0.10200
C1231       C  0.87412686  0.86348544  0.73943623     0.03500
C1232       C  0.84213709  0.86109673  0.72358624    -0.08700
C1233       C  0.80645270  0.82938436  0.72855802     0.06000
C1234       C  0.80252225  0.79977721  0.74912704    -0.08100
H1235       H  0.89377588  0.83463512  0.77217055     0.11600
H1236       H  0.84450158  0.88322457  0.70710149     0.09100
H1237       H  0.77505496  0.77523292  0.75291945     0.08900
C1238       C  0.96026170  0.96264565  0.72137603     0.06000
C1239       C  0.49585898  0.96317051  0.72307237    -0.10200
C1240       C  0.53920497  0.50759454  0.76635092     0.03500
C1241       C  0.53398870  0.53923992  0.76779177    -0.08700
C1242       C  0.99338569  0.53289213  0.76497372     0.06000
C1243       C  0.96207978  0.49614198  0.76490997    -0.08100
H1244       H  0.49312256  0.93532496  0.72133082     0.11600
H1245       H  0.55847681  0.56725071  0.76874368     0.09100
H1246       H  0.93437212  0.49298521  0.76516087     0.08900
C1247       C  0.52456961  0.69705293  0.73718099     0.06000
C1248       C  0.53083136  0.66631151  0.73985718    -0.10200
C1249       C  0.00726108  0.63406357  0.75321990     0.03500
C1250       C  0.97902046  0.63574435  0.77142444    -0.08700
C1251       C  0.97503946  0.66800394  0.76999646     0.06000
C1252       C  0.99966183  0.69925103  0.75079287    -0.08100
H1253       H  0.55390846  0.66693238  0.72644388     0.11600
H1254       H  0.96039449  0.61256152  0.78727297     0.09100
H1255       H  0.99671737  0.72431281  0.74982369     0.08900
C1256       C  0.66780345  0.97890573  0.72668780     0.06000
C1257       C  0.69530626  0.49733143  0.74880958    -0.10200
C1258       C  0.69066075  0.52315301  0.76850202     0.03500
C1259       C  0.65548404  0.52083090  0.77006259    -0.08700
C1260       C  0.62465926  0.49275785  0.75161167     0.06000
C1261       C  0.63515407  0.98165974  0.72395537    -0.08100
H1262       H  0.72242632  0.49899417  0.74780576     0.11600
H1263       H  0.65242550  0.54046871  0.78617691     0.09100
H1264       H  0.61279729  0.96205144  0.70751395     0.08900
C1265       C  0.57810948  0.51377040  0.76555303    -0.13600
C1266       C  0.58633270  0.48804915  0.75278465    -0.28800
H1267       H  0.60048451  0.54101167  0.77440408     0.15400
H1268       H  0.60117596  0.04008843  0.75168568     0.16000
C1269       C  0.01290045  0.60064034  0.75395655    -0.13600
C1270       C  0.98717463  0.56595187  0.76474160    -0.28800
H1271       H  0.03895413  0.60468678  0.74374231     0.15400
H1272       H  0.46217812  0.56058165  0.77538369     0.16000
C1273       C  0.91285879  0.89624544  0.73583822    -0.13600
C1274       C  0.92143973  0.92956837  0.72156730    -0.28800
H1275       H  0.93525621  0.89328150  0.74739391     0.15400
H1276       H  0.89928290  0.93418651  0.71203409     0.16000
C1277       C  0.57117193  0.75192371  0.69751343    -0.10400
C1278       C  0.54909336  0.72864039  0.71649744    -0.12000
C1279       C  0.67137861  0.92597503  0.69086646    -0.10400
C1280       C  0.67064861  0.95006943  0.70800070    -0.12000
C1281       C  0.77406631  0.82677521  0.71159414    -0.10400
C1282       C  0.74859078  0.82549878  0.69523640    -0.12000
C1283       C  0.66566905  0.91807717  0.55437815    -0.10400
C1284       C  0.66816716  0.94352625  0.53710139    -0.12000
C1285       C  0.54970342  0.71367071  0.54213354    -0.10400
C1286       C  0.57256718  0.73805967  0.56041588    -0.12000
C1287       C  0.57174637  0.98668865  0.00569085    -0.13600
C1288       C  0.60686071  0.01530955  0.00063307    -0.28800
H1289       H  0.56713553  0.95825462  0.00961341     0.15400
H1290       H  0.61288612  0.54528499  0.49720843     0.16000
C1291       C  0.51346162  0.57787908  0.00917521    -0.13600
C1292       C  0.48745754  0.58699021  0.99933140    -0.28800
H1293       H  0.54140316  0.60018144  0.01618307     0.15400
H1294       H  0.95677532  0.55451986  0.49621500     0.16000
C1295       C  0.74235076  0.82158803  0.55696668    -0.10400
C1296       C  0.76406034  0.82150262  0.53702493    -0.12000
C1297       C  0.88898317  0.90918488  0.49379830    -0.13600
C1298       C  0.92428969  0.91617911  0.48998850    -0.28800
H1299       H  0.88396594  0.93224989  0.50000141     0.15400
H1300       H  0.93390844  0.89126201  0.97764967     0.16000
C1301       C  0.72622922  0.55025727  0.96067005    -0.10400
C1302       C  0.75096200  0.57222310  0.94289516    -0.12000
C1303       C  0.74627366  0.57452351  0.80597477    -0.10400
C1304       C  0.72170403  0.55137175  0.78807575    -0.12000
C1305       C  0.92351834  0.67232601  0.94639824    -0.10400
C1306       C  0.94525444  0.67134285  0.96634682    -0.12000
C1307       C  0.94610675  0.66889378  0.78924824    -0.10400
C1308       C  0.92229173  0.66768785  0.80733767    -0.12000
C1309       C  0.83063187  0.74935607  0.80560398    -0.10400
C1310       C  0.83078874  0.77204379  0.78618290    -0.12000
C1311       C  0.82375260  0.74728945  0.94327522    -0.10400
C1312       C  0.82403045  0.77187029  0.96031208    -0.12000
loop_ 
_geom_bond_atom_site_label_1 
_geom_bond_atom_site_label_2 
_geom_bond_distance 
_geom_bond_site_symmetry_2 
_ccdc_geom_bond_type 
O1           C16   1.260       .  A
O1           Al9   1.912       .  S
C2           O12   1.259       .  A
C2            O3   1.258       .  A
C2          C155   1.431       .  S
O3           Al5   1.897       .  S
O4            C6   1.262       .  A
O4           Al5   1.919       .  S
Al5          O13   1.924       .  S
Al5          O15   1.890       .  S
Al5          O14   1.787       .  S
C6           O19   1.257       .  A
C6          C160   1.435       .  S
O7           C17   1.260       .  A
O7           Al9   1.909       .  S
O8           C21   1.259       .  A
O8          Al18   1.910       .  S
Al9          O22   1.894       .  S
Al9          O19   1.893       .  S
Al9          O14   1.789       .  S
O10          C17   1.260       .  A
O10         Al18   1.896       .  S
O11          C20   1.260       .  A
O11         Al18   1.897       .  S
O12         Al18   1.909       .  S
O13          C20   1.263       .  A
O14         Al18   1.787       .  S
O15          C16   1.257       .  A
C16         C157   1.431       .  S
C17         C161   1.429       .  S
C20         C154   1.436       .  S
C21          O22   1.257       .  A
C21         C163   1.430       .  S
C23         C164   1.436       .  S
C23          C24   1.400       .  A
C23         C192   1.396       .  A
C24         C189   1.411       .  A
C24          H29   1.082       .  S
C25          C26   1.410       .  A
C25         C188   1.403   1_554  A
C25         C149   1.488       .  S
C26          C27   1.404       .  A
C26          H30   1.082       .  S
C27         C148   1.442       .  S
C27          C28   1.402       .  A
C28         C187   1.400   1_554  A
C28          H31   1.084       .  S
C32         C525   1.412   1_545  A
C32         C693   1.402       .  A
C32         C799   1.487       .  S
C33          C34   1.402       .  A
C33         C524   1.408       .  A
C33          H38   1.081       .  S
C34         C855   1.407       .  A
C34         C150   1.489       .  S
C35          C36   1.395       .  A
C35         C854   1.399   1_455  A
C35          H39   1.085       .  S
C36         C365   1.404       .  A
C36         C139   1.482       .  S
C37         C688   1.415   1_455  A
C37         C364   1.412   1_545  A
C37          H40   1.077       .  S
C41         C137   1.437       .  S
C41          C42   1.398       .  A
C41         C210   1.397   1_554  A
C42         C207   1.405   1_554  A
C42          H47   1.085       .  S
C43         C206   1.406       .  A
C43         C700   1.413   1_455  A
C43         C144   1.495       .  S
C44          C45   1.398       .  A
C44         C699   1.404       .  A
C44          H48   1.085       .  S
C45         C158   1.437       .  S
C45         C702   1.398       .  A
C46         C205   1.399       .  A
C46         C701   1.401   1_455  A
C46          H49   1.084   1_455  S
C50         C136   1.439       .  S
C50          C51   1.401       .  A
C50         C219   1.400       .  A
C51         C216   1.409       .  A
C51          H56   1.081       .  S
C52         C215   1.408       .  A
C52         C381   1.400       .  A
C52         C140   1.482       .  S
C53          C54   1.400       .  A
C53         C380   1.402       .  A
C53          H57   1.085       .  S
C54         C153   1.441       .  S
C54         C383   1.403       .  A
C55         C214   1.402       .  A
C55         C382   1.401       .  A
C55          H58   1.084       .  S
O59          C74   1.261       .  A
O59         Al67   1.917       .  S
C60          O70   1.260       .  A
C60          O61   1.259       .  A
C60         C134   1.429       .  S
O61         Al63   1.895       .  S
O62          C64   1.261       .  A
O62         Al63   1.920       .  S
Al63         O71   1.920       .  S
Al63         O73   1.891       .  S
Al63         O72   1.787       .  S
C64          O77   1.258       .  A
C64         C129   1.436       .  S
O65          C75   1.261       .  A
O65         Al67   1.915       .  S
O66          C79   1.260       .  A
O66         Al76   1.912       .  S
Al67         O80   1.895       .  S
Al67         O77   1.896       .  S
Al67         O72   1.787       .  S
O68          C75   1.259       .  A
O68         Al76   1.897       .  S
O69          C78   1.259       .  A
O69         Al76   1.898       .  S
O70         Al76   1.910       .  S
O71          C78   1.261       .  A
O72         Al76   1.787       .  S
O73          C74   1.258       .  A
C74         C138   1.431       .  S
C75         C131   1.434       .  S
C78         C147   1.436       .  S
C79          O80   1.258       .  A
C79         C135   1.432       .  S
C81         C162   1.435       .  S
C81          C82   1.403       .  A
C81          C86   1.397       .  A
C82          C83   1.409       .  A
C82          H87   1.081       .  S
C83          C84   1.405       .  A
C83         C125   1.487       .  S
C84          C85   1.399       .  A
C84          H88   1.085       .  S
C85         C133   1.435       .  S
C85          C86   1.395       .  A
C86          H89   1.084       .  S
C90         C747   1.404       .  A
C90         C423   1.406       .  A
C90         C126   1.489       .  S
C91         C746   1.409       .  A
C91         C420   1.405   1_655  A
C91          H96   1.082       .  S
C92          C93   1.408   1_565  A
C92         C419   1.403   1_455  A
C92         C117   1.490       .  S
C93         C750   1.404       .  A
C93          H97   1.081       .  S
C94          C95   1.402       .  A
C94         C749   1.396       .  A
C94         C122   1.482       .  S
C95         C418   1.404   1_545  A
C95          H98   1.082       .  S
C99         C130   1.441       .  S
C99         C100   1.403       .  A
C99         C760   1.402   1_455  A
C100        C757   1.409   1_455  A
C100        H105   1.082       .  S
C101        C102   1.401       .  A
C101        C756   1.406       .  A
C101        C121   1.483       .  S
C102        C103   1.399       .  A
C102        H106   1.085       .  S
C103        C159   1.440       .  S
C103        C104   1.404       .  A
C104        C755   1.404       .  A
C104        H107   1.084       .  S
C108        C132   1.439       .  S
C108        C113   1.402       .  A
C108        C437   1.400       .  A
C109        C110   1.397       .  A
C109        C436   1.398   1_545  A
C109        H114   1.084       .  S
C110        C156   1.437       .  S
C110        C111   1.400       .  A
C111        C112   1.405       .  A
C111        H115   1.085       .  S
C112        C441   1.410   1_545  A
C112        C118   1.490       .  S
C113        C440   1.409       .  A
C113        H116   1.082       .  S
C117        C118   1.348   1_565  D
C117        H119   1.084       .  S
C118        H448   1.084       .  S
H120        C446   1.085       .  S
C121        C122   1.345       .  D
C121        H123   1.085       .  S
C122        H780   1.085       .  S
H124        C778   1.084       .  S
C125        C126   1.349       .  D
C125        H127   1.085       .  S
C126        H128   1.084       .  S
C129        C130   1.206       .  T
C131        C132   1.205       .  T
C133        C134   1.202       .  T
C135        C136   1.205       .  T
C137        C138   1.204       .  T
C139        C140   1.344       .  D
C139        H141   1.085       .  S
C140        H634   1.085       .  S
H142        C632   1.084       .  S
C143        C688   1.497       .  S
C143        C144   1.350   1_655  D
C143        H145   1.084       .  S
C144        H966   1.083       .  S
H146        C964   1.084   1_556  S
C147        C148   1.207       .  T
C149        C150   1.347       .  D
C149        H151   1.084   1_554  S
C150        H316   1.084       .  S
H152        C314   1.084       .  S
C153        C154   1.207       .  T
C155        C156   1.204       .  T
C157        C158   1.204       .  T
C159        C160   1.206       .  T
C161        C162   1.202       .  T
C163        C164   1.203       .  T
O165        C180   1.258       .  A
O165       Al173   1.901       .  S
C166        O176   1.257       .  A
C166        O167   1.260       .  A
C166        C319   1.434       .  S
O167       Al169   1.917       .  S
O168        C170   1.259       .  A
O168       Al169   1.893       .  S
Al169       O177   1.893       .  S
Al169       O179   1.914       .  S
Al169       O178   1.789       .  S
C170        O183   1.263       .  A
C170        C324   1.435       .  S
O171        C181   1.258       .  A
O171       Al173   1.895       .  S
O172        C185   1.257       .  A
O172       Al182   1.893       .  S
Al173       O186   1.916       .  S
Al173       O183   1.924       .  S
Al173       O178   1.787       .  S
O174        C181   1.261       .  A
O174       Al182   1.919       .  S
O175        C184   1.263       .  A
O175       Al182   1.917       .  S
O176       Al182   1.894       .  S
O177        C184   1.258       .  A
O178       Al182   1.788       .  S
O179        C180   1.260       .  A
C180        C321   1.435       .  S
C181        C325   1.436       .  S
C184        C318   1.431       .  S
C185        O186   1.261       .  A
C185        C327   1.434       .  S
C187        C328   1.439       .  S
C187        C188   1.398       .  A
C188        H193   1.085       .  S
C189        C190   1.403       .  A
C189        C313   1.490       .  S
C190        C191   1.401       .  A
C190        H194   1.085       .  S
C191        C312   1.433       .  S
C191        C192   1.396       .  A
C192        H195   1.084       .  S
C196        C361   1.414   1_545  A
C196        C857   1.405       .  A
C196        C963   1.493       .  S
C197        C360   1.415       .  A
C197        C198   1.410       .  A
C197        H202   1.078       .  S
C198        C691   1.398       .  A
C198        C314   1.485       .  S
C199        C690   1.408       .  A
C199        C200   1.403   1_655  A
C199        H203   1.081       .  S
C200        C529   1.407       .  A
C200        C303   1.489       .  S
C201        C852   1.414   1_455  A
C201        C528   1.413   1_545  A
C201        H204   1.079       .  S
C205        C301   1.442       .  S
C205        C206   1.402       .  A
C206        H211   1.085       .  S
C207        C864   1.416   1_455  A
C207        C308   1.495       .  S
C208        C863   1.405   1_556  A
C208        C209   1.400       .  A
C208        H212   1.085       .  S
C209        C322   1.441       .  S
C209        C866   1.400   1_556  A
C210        C865   1.399   1_455  A
C210        H213   1.084       .  S
C214        C300   1.439       .  S
C214        C215   1.400       .  A
C215        H220   1.083       .  S
C216        C545   1.406   1_554  A
C216        C304   1.491       .  S
C217        C544   1.400   1_556  A
C217        C218   1.398       .  A
C217        H221   1.085       .  S
C218        C317   1.437       .  S
C218        C547   1.400   1_556  A
C219        C546   1.400   1_554  A
C219        H222   1.084   1_554  S
O223        C238   1.260       .  A
O223       Al231   1.906       .  S
C224        O234   1.258       .  A
C224        O225   1.260       .  A
C224        C298   1.432       .  S
O225       Al227   1.915       .  S
O226        C228   1.259       .  A
O226       Al227   1.897       .  S
Al227       O235   1.895       .  S
Al227       O237   1.910       .  S
Al227       O236   1.788       .  S
C228        O241   1.262       .  A
C228        C293   1.436       .  S
O229        C239   1.259       .  A
O229       Al231   1.898       .  S
O230        C243   1.257       .  A
O230       Al240   1.893       .  S
Al231       O244   1.920       .  S
Al231       O241   1.920       .  S
Al231       O236   1.787       .  S
O232        C239   1.259       .  A
O232       Al240   1.908       .  S
O233        C242   1.259       .  A
O233       Al240   1.903       .  S
O234       Al240   1.892       .  S
O235        C242   1.258       .  A
O236       Al240   1.789       .  S
O237        C238   1.260       .  A
C238        C302   1.436       .  S
C239        C295   1.432       .  S
C242        C311   1.427       .  S
C243        O244   1.262       .  A
C243        C299   1.434       .  S
C245        C326   1.441       .  S
C245        C246   1.404       .  A
C245        C250   1.401       .  A
C246        C247   1.410       .  A
C246        H251   1.082       .  S
C247        C248   1.403       .  A
C247        C289   1.487       .  S
C248        C249   1.398       .  A
C248        H252   1.085       .  S
C249        C297   1.438       .  S
C249        C250   1.400       .  A
C250        H253   1.084       .  S
C254        C911   1.401       .  A
C254        C587   1.407       .  A
C254        C290   1.488       .  S
C255        C910   1.402   1_455  A
C255        C584   1.407       .  A
C255        H260   1.082       .  S
C256        C583   1.404   1_455  A
C256        C257   1.407   1_565  A
C256        C281   1.490       .  S
C257        C914   1.402       .  A
C257        H261   1.082       .  S
C258        C913   1.404       .  A
C258        C259   1.406       .  A
C258        C286   1.489       .  S
C259        C582   1.402   1_545  A
C259        H262   1.082       .  S
C263        C294   1.442       .  S
C263        C264   1.403       .  A
C263        C924   1.401   1_455  A
C264        C921   1.410   1_455  A
C264        H269   1.082       .  S
C265        C920   1.409       .  A
C265        C266   1.404       .  A
C265        C285   1.489       .  S
C266        C267   1.401       .  A
C266        H270   1.085       .  S
C267        C323   1.441       .  S
C267        C268   1.401       .  A
C268        C919   1.401       .  A
C268        H271   1.084       .  S
C272        C296   1.437       .  S
C272        C601   1.400       .  A
C272        C277   1.396       .  A
C273        C600   1.399   1_545  A
C273        C274   1.398       .  A
C273        H278   1.084       .  S
C274        C320   1.439       .  S
C274        C275   1.400       .  A
C275        C276   1.406       .  A
C275        H279   1.085       .  S
C276        C605   1.409   1_545  A
C276        C282   1.489       .  S
C277        C604   1.401       .  A
C277        H280   1.085       .  S
C281        C282   1.350   1_565  D
C281        H283   1.084       .  S
C282        H612   1.085       .  S
H284        C610   1.085       .  S
C285        C286   1.349       .  D
C285        H287   1.085       .  S
C286        H944   1.084       .  S
H288        C942   1.084       .  S
C289        C290   1.347       .  D
C289        H291   1.085       .  S
C290        H292   1.084       .  S
C293        C294   1.207       .  T
C295        C296   1.204       .  T
C297        C298   1.204       .  T
C299        C300   1.205       .  T
C301        C302   1.207       .  T
C303        C304   1.350       .  D
C303        H305   1.083       .  S
C304        H470   1.085       .  S
H306        C468   1.084       .  S
C307        C852   1.491       .  S
C307        C308   1.347   1_655  D
C307        H309   1.082       .  S
C308        H802   1.085   1_556  S
H310        C800   1.085       .  S
C311        C312   1.201       .  T
C313        C314   1.345       .  D
C313        H315   1.085       .  S
C317        C318   1.204       .  T
C319        C320   1.205       .  T
C321        C322   1.206       .  T
C323        C324   1.206       .  T
C325        C326   1.207       .  T
C327        C328   1.205       .  T
O329        C344   1.260       .  A
O329       Al337   1.902       .  S
C330        O340   1.256       .  A
C330        O331   1.259       .  A
C330        C483   1.434       .  S
O331       Al333   1.915       .  S
O332        C334   1.258       .  A
O332       Al333   1.894       .  S
Al333       O341   1.886       .  S
Al333       O343   1.912       .  S
Al333       O342   1.789       .  S
C334        O347   1.262       .  A
C334        C488   1.434       .  S
O335        C345   1.260       .  A
O335       Al337   1.893       .  S
O336        C349   1.257       .  A
O336       Al346   1.899       .  S
Al337       O350   1.921       .  S
Al337       O347   1.922       .  S
Al337       O342   1.787       .  S
O338        C345   1.263       .  A
O338       Al346   1.920       .  S
O339        C348   1.263       .  A
O339       Al346   1.918       .  S
O340       Al346   1.892       .  S
O341        C348   1.257       .  A
O342       Al346   1.787       .  S
O343        C344   1.261       .  A
C344        C485   1.433       .  S
C345        C489   1.434       .  S
C348        C482   1.430       .  S
C349        O350   1.261       .  A
C349        C491   1.440       .  S
C351        C492   1.445       .  S
C351        C352   1.404       .  A
C351        C520   1.403       .  A
C352        C517   1.412       .  A
C352        H357   1.082       .  S
C353        C516   1.412   1_554  A
C353        C354   1.403       .  A
C353        C477   1.492       .  S
C354        C355   1.400       .  A
C354        H358   1.085       .  S
C355        C476   1.438       .  S
C355        C356   1.400   1_554  A
C356        C515   1.400       .  A
C356        H359   1.084       .  S
C360       C1021   1.408       .  A
C360       C1127   1.494       .  S
C361        C362   1.411   1_554  A
C361        H366   1.078       .  S
C362       C1183   1.400       .  A
C362        C478   1.489       .  S
C363       C1182   1.396       .  A
C363        C364   1.399   1_655  A
C363        H367   1.085       .  S
C364        C467   1.490       .  S
C365       C1016   1.405       .  A
C365        H368   1.082       .  S
C369        C465   1.445       .  S
C369        C370   1.405       .  A
C369        C538   1.403   1_455  A
C370        C535   1.411   1_455  A
C370        H375   1.082       .  S
C371        C534   1.413   1_655  A
C371       C1028   1.403       .  A
C371        C472   1.490       .  S
C372       C1027   1.405       .  A
C372        C373   1.401       .  A
C372        H376   1.085       .  S
C373        C486   1.439       .  S
C373       C1030   1.398       .  A
C374        C533   1.399   1_655  A
C374       C1029   1.397       .  A
C374        H377   1.084       .  S
C378        C464   1.445       .  S
C378        C379   1.405       .  A
C378        C547   1.402   1_565  A
C379        C544   1.412   1_565  A
C379        H384   1.083       .  S
C380        C543   1.412   1_545  A
C380        C468   1.491       .  S
C381        C382   1.397       .  A
C381        H385   1.085       .  S
C382        C481   1.435       .  S
C383        C542   1.403   1_545  A
C383        H386   1.084   1_545  S
O387        C402   1.260       .  A
O387       Al395   1.901       .  S
C388        O398   1.259       .  A
C388        O389   1.262       .  A
C388        C462   1.445       .  S
O389       Al391   1.925       .  S
O390        C392   1.260       .  A
O390       Al391   1.904       .  S
Al391       O399   1.895       .  S
Al391       O401   1.924       .  S
Al391       O400   1.790       .  S
C392        O405   1.261       .  A
C392        C457   1.437       .  S
O393        C403   1.259       .  A
O393       Al395   1.892       .  S
O394        C407   1.258       .  A
O394       Al404   1.902       .  S
Al395       O408   1.918       .  S
Al395       O405   1.917       .  S
Al395       O400   1.790       .  S
O396        C403   1.262       .  A
O396       Al404   1.917       .  S
O397        C406   1.262       .  A
O397       Al404   1.913       .  S
O398       Al404   1.904       .  S
O399        C406   1.259       .  A
O400       Al404   1.790       .  S
O401        C402   1.263       .  A
C402        C466   1.439       .  S
C403        C459   1.432       .  S
C406        C475   1.432       .  S
C407        O408   1.260       .  A
C407        C463   1.440       .  S
C409        C490   1.439       .  S
C409        C410   1.398       .  A
C409        C414   1.400       .  A
C410        C411   1.403       .  A
C410        H415   1.085       .  S
C411        C412   1.416       .  A
C411        C453   1.495       .  S
C412        C413   1.408       .  A
C412        H416   1.081       .  S
C413        C461   1.450       .  S
C413        C414   1.402       .  A
C414        H417   1.085       .  S
C418       C1075   1.418       .  A
C418        C454   1.497       .  S
C419       C1074   1.407       .  A
C419        H424   1.082       .  S
C420        C421   1.406       .  A
C420        C445   1.489       .  S
C421       C1078   1.400       .  A
C421        H425   1.082       .  S
C422       C1077   1.408       .  A
C422        C423   1.401       .  A
C422        C450   1.489       .  S
C423        H426   1.082       .  S
C427        C458   1.443       .  S
C427        C428   1.403       .  A
C427       C1088   1.402       .  A
C428       C1085   1.411   1_455  A
C428        H433   1.080       .  S
C429       C1084   1.402       .  A
C429        C430   1.411       .  A
C429        C449   1.489       .  S
C430        C431   1.403       .  A
C430        H434   1.081       .  S
C431        C487   1.440       .  S
C431        C432   1.400       .  A
C432       C1083   1.398       .  A
C432        H435   1.084       .  S
C436        C460   1.438       .  S
C436        C441   1.402       .  A
C437        C438   1.399       .  A
C437        H442   1.084       .  S
C438        C484   1.439       .  S
C438        C439   1.400       .  A
C439        C440   1.405       .  A
C439        H443   1.085       .  S
C440        C446   1.488       .  S
C441        H444   1.082       .  S
C445        C446   1.349       .  D
C445        H447   1.084       .  S
C449        C450   1.347       .  D
C449        H451   1.084       .  S
C450       H1108   1.084       .  S
H452       C1106   1.083       .  S
C453        C454   1.346       .  D
C453        H455   1.083       .  S
C454        H456   1.084       .  S
C457        C458   1.207       .  T
C459        C460   1.204       .  T
C461        C462   1.212       .  T
C463        C464   1.209       .  T
C465        C466   1.209       .  T
C467        C468   1.345   1_565  D
C467        H469   1.084       .  S
C471       C1016   1.495       .  S
C471        C472   1.347   1_455  D
C471        H473   1.085       .  S
C472       H1294   1.083       .  S
H474       C1292   1.085       .  S
C475        C476   1.205       .  T
C477        C478   1.346   1_554  D
C477        H479   1.085       .  S
C478        H644   1.084       .  S
H480        C642   1.084       .  S
C481        C482   1.203       .  T
C483        C484   1.205       .  T
C485        C486   1.205       .  T
C487        C488   1.205       .  T
C489        C490   1.205       .  T
C491        C492   1.209       .  T
O493        C508   1.260       .  A
O493       Al501   1.902       .  S
C494        O504   1.258       .  A
C494        O495   1.260       .  A
C494        C647   1.435       .  S
O495       Al497   1.916       .  S
O496        C498   1.260       .  A
O496       Al497   1.903       .  S
Al497       O505   1.900       .  S
Al497       O507   1.912       .  S
Al497       O506   1.790       .  S
C498        O511   1.261       .  A
C498        C652   1.439       .  S
O499        C509   1.259       .  A
O499       Al501   1.895       .  S
O500        C513   1.259       .  A
O500       Al510   1.899       .  S
Al501       O514   1.918       .  S
Al501       O511   1.919       .  S
Al501       O506   1.790       .  S
O502        C509   1.260       .  A
O502       Al510   1.914       .  S
O503        C512   1.261       .  A
O503       Al510   1.913       .  S
O504       Al510   1.896       .  S
O505        C512   1.259       .  A
O506       Al510   1.791       .  S
O507        C508   1.260       .  A
C508        C649   1.435       .  S
C509        C653   1.433       .  S
C512        C646   1.436       .  S
C513        O514   1.261       .  A
C513        C655   1.438       .  S
C515        C656   1.443       .  S
C515        C516   1.404       .  A
C516        H521   1.081       .  S
C517        C518   1.401       .  A
C517        C641   1.490       .  S
C518        C519   1.398       .  A
C518        H522   1.085       .  S
C519        C640   1.439       .  S
C519        C520   1.402       .  A
C520        H523   1.084       .  S
C524       C1185   1.405       .  A
C524       C1291   1.489       .  S
C525        C526   1.411       .  A
C525        H530   1.079       .  S
C526       C1019   1.400       .  A
C526        C642   1.488       .  S
C527       C1018   1.397       .  A
C527        C528   1.401   1_655  A
C527        H531   1.085       .  S
C528        C631   1.490   1_556  S
C529       C1180   1.403       .  A
C529        H532   1.082       .  S
C533        C629   1.442       .  S
C533        C534   1.406       .  A
C534        H539   1.082       .  S
C535       C1192   1.404   1_554  A
C535        C636   1.490       .  S
C536       C1191   1.405       .  A
C536        C537   1.401       .  A
C536        H540   1.085       .  S
C537        C650   1.441       .  S
C537       C1194   1.400   1_556  A
C538       C1193   1.401   1_554  A
C538        H541   1.084   1_655  S
C542        C628   1.447       .  S
C542        C543   1.403       .  A
C543        H548   1.082       .  S
C544        C632   1.488   1_554  S
C545        C546   1.402       .  A
C545        H549   1.085       .  S
C546        C645   1.441       .  S
C547        H550   1.084   1_545  S
O551        C566   1.261       .  A
O551       Al559   1.918       .  S
C552        O562   1.259       .  A
C552        O553   1.258       .  A
C552        C626   1.439       .  S
O553       Al555   1.902       .  S
O554        C556   1.261       .  A
O554       Al555   1.913       .  S
Al555       O563   1.919       .  S
Al555       O565   1.890       .  S
Al555       O564   1.789       .  S
C556        O569   1.258       .  A
C556        C621   1.436       .  S
O557        C567   1.263       .  A
O557       Al559   1.916       .  S
O558        C571   1.259       .  A
O558       Al568   1.916       .  S
Al559       O572   1.908       .  S
Al559       O569   1.898       .  S
Al559       O564   1.790       .  S
O560        C567   1.261       .  A
O560       Al568   1.899       .  S
O561        C570   1.261       .  A
O561       Al568   1.896       .  S
O562       Al568   1.916       .  S
O563        C570   1.263       .  A
O564       Al568   1.790       .  S
O565        C566   1.256       .  A
C566        C630   1.436       .  S
C567        C623   1.432       .  S
C570        C639   1.433       .  S
C571        O572   1.260       .  A
C571        C627   1.441       .  S
C573        C654   1.438       .  S
C573        C574   1.398       .  A
C573        C578   1.400       .  A
C574        C575   1.403       .  A
C574        H579   1.085       .  S
C575        C576   1.412       .  A
C575        C617   1.490       .  S
C576        C577   1.405       .  A
C576        H580   1.081       .  S
C577        C625   1.444       .  S
C577        C578   1.402       .  A
C578        H581   1.084       .  S
C582       C1239   1.409       .  A
C582        C618   1.489       .  S
C583       C1238   1.410       .  A
C583        H588   1.082       .  S
C584        C585   1.401       .  A
C584        C609   1.487       .  S
C585       C1242   1.407   1_455  A
C585        H589   1.082       .  S
C586       C1241   1.411       .  A
C586        C587   1.403       .  A
C586        C614   1.492       .  S
C587        H590   1.082       .  S
C591        C622   1.441       .  S
C591        C592   1.400       .  A
C591       C1252   1.401   1_455  A
C592       C1249   1.404       .  A
C592        H597   1.085       .  S
C593       C1248   1.403       .  A
C593        C594   1.411       .  A
C593        C613   1.490       .  S
C594        C595   1.405       .  A
C594        H598   1.082       .  S
C595        C651   1.445       .  S
C595        C596   1.404       .  A
C596       C1247   1.402       .  A
C596        H599   1.084       .  S
C600        C624   1.438       .  S
C600        C605   1.403       .  A
C601        C602   1.402       .  A
C601        H606   1.084       .  S
C602        C648   1.441       .  S
C602        C603   1.403       .  A
C603        C604   1.410       .  A
C603        H607   1.081       .  S
C604        C610   1.486       .  S
C605        H608   1.081       .  S
C609        C610   1.346       .  D
C609        H611   1.084       .  S
C613        C614   1.347       .  D
C613        H615   1.084       .  S
C614       H1272   1.085       .  S
H616       C1270   1.084       .  S
C617        C618   1.346       .  D
C617        H619   1.085       .  S
C618        H620   1.084       .  S
C621        C622   1.207       .  T
C623        C624   1.204       .  T
C625        C626   1.208       .  T
C627        C628   1.210       .  T
C629        C630   1.207       .  T
C631        C632   1.344   1_564  D
C631        H633   1.086       .  S
C635       C1180   1.490       .  S
C635        C636   1.347   1_455  D
C635        H637   1.084       .  S
C636       H1130   1.085       .  S
H638       C1128   1.083       .  S
C639        C640   1.205       .  T
C641        C642   1.345       .  D
C641        H643   1.084       .  S
C645        C646   1.206       .  T
C647        C648   1.206       .  T
C649        C650   1.206       .  T
C651        C652   1.209       .  T
C653        C654   1.205       .  T
C655        C656   1.208       .  T
O657        C672   1.261       .  A
O657       Al665   1.916       .  S
C658        O668   1.258       .  A
C658        O659   1.258       .  A
C658        C811   1.437       .  S
O659       Al661   1.905       .  S
O660        C662   1.260       .  A
O660       Al661   1.911       .  S
Al661       O669   1.918       .  S
Al661       O671   1.895       .  S
Al661       O670   1.791       .  S
C662        O675   1.257       .  A
C662        C816   1.435       .  S
O663        C673   1.263       .  A
O663       Al665   1.916       .  S
O664        C677   1.258       .  A
O664       Al674   1.912       .  S
Al665       O678   1.903       .  S
Al665       O675   1.895       .  S
Al665       O670   1.792       .  S
O666        C673   1.261       .  A
O666       Al674   1.900       .  S
O667        C676   1.262       .  A
O667       Al674   1.899       .  S
O668       Al674   1.911       .  S
O669        C676   1.262       .  A
O670       Al674   1.791       .  S
O671        C672   1.258       .  A
C672        C813   1.438       .  S
C673        C817   1.434       .  S
C676        C810   1.434       .  S
C677        O678   1.258       .  A
C677        C819   1.438       .  S
C679        C820   1.444       .  S
C679        C680   1.402       .  A
C679        C848   1.402       .  A
C680        C845   1.412       .  A
C680        H685   1.082       .  S
C681        C844   1.405   1_554  A
C681        C682   1.411       .  A
C681        C805   1.491       .  S
C682        C683   1.404       .  A
C682        H686   1.081       .  S
C683        C804   1.444       .  S
C683        C684   1.402       .  A
C684        C843   1.401   1_554  A
C684        H687   1.084       .  S
C688       C1181   1.408   1_545  A
C689       C1180   1.409   1_655  A
C689        C690   1.405       .  A
C689        H694   1.082       .  S
C690        C806   1.492       .  S
C691        C692   1.395       .  A
C691        H695   1.085       .  S
C692       C1021   1.405       .  A
C692        C795   1.483       .  S
C693       C1020   1.403   1_545  A
C693        H696   1.082       .  S
C697        C793   1.444       .  S
C697        C698   1.404       .  A
C697        C866   1.401       .  A
C698        C863   1.413       .  A
C698        H703   1.081       .  S
C699        C862   1.414       .  A
C699        C800   1.493       .  S
C700        C701   1.405       .  A
C700        H704   1.082       .  S
C701        C814   1.444       .  S
C702        C861   1.400       .  A
C702        H705   1.084       .  S
C706        C792   1.438       .  S
C706        C707   1.403       .  A
C706        C875   1.398   1_554  A
C707        C872   1.412   1_554  A
C707        H712   1.080       .  S
C708        C871   1.410       .  A
C708       C1037   1.400       .  A
C708        C796   1.485       .  S
C709       C1036   1.400       .  A
C709        C710   1.399       .  A
C709        H713   1.085       .  S
C710        C809   1.439       .  S
C710       C1039   1.404       .  A
C711        C870   1.402       .  A
C711       C1038   1.402       .  A
C711        H714   1.084       .  S
O715        C730   1.261       .  A
O715       Al723   1.920       .  S
C716        O726   1.260       .  A
C716        O717   1.259       .  A
C716        C790   1.434       .  S
O717       Al719   1.900       .  S
O718        C720   1.263       .  A
O718       Al719   1.926       .  S
Al719       O727   1.926       .  S
Al719       O729   1.900       .  S
Al719       O728   1.787       .  S
C720        O733   1.257       .  A
C720        C785   1.435       .  S
O721        C731   1.262       .  A
O721       Al723   1.920       .  S
O722        C735   1.261       .  A
O722       Al732   1.918       .  S
Al723       O736   1.893       .  S
Al723       O733   1.889       .  S
Al723       O728   1.788       .  S
O724        C731   1.259       .  A
O724       Al732   1.898       .  S
O725        C734   1.260       .  A
O725       Al732   1.898       .  S
O726       Al732   1.913       .  S
O727        C734   1.264       .  A
O728       Al732   1.788       .  S
O729        C730   1.259       .  A
C730        C794   1.438       .  S
C731        C787   1.435       .  S
C734        C803   1.438       .  S
C735        O736   1.257       .  A
C735        C791   1.432       .  S
C737        C818   1.440       .  S
C737        C738   1.401       .  A
C737        C742   1.399       .  A
C738        C739   1.406       .  A
C738        H743   1.085       .  S
C739        C740   1.411       .  A
C739        C781   1.491       .  S
C740        C741   1.403       .  A
C740        H744   1.082       .  S
C741        C789   1.440       .  S
C741        C742   1.399       .  A
C742        H745   1.084       .  S
C746       C1079   1.405       .  A
C746        C782   1.490       .  S
C747       C1076   1.409       .  A
C747        H752   1.081       .  S
C748       C1075   1.415   1_545  A
C748        C749   1.400       .  A
C748        C773   1.492       .  S
C749        H753   1.085       .  S
C750        C751   1.408   1_455  A
C750        C778   1.489       .  S
C751       C1074   1.402   1_545  A
C751        H754   1.081       .  S
C755        C786   1.441       .  S
C755        C756   1.400       .  A
C756        H761   1.083       .  S
C757        C758   1.403       .  A
C757        C777   1.488       .  S
C758        C759   1.399       .  A
C758        H762   1.085       .  S
C759        C815   1.440       .  S
C759        C760   1.401       .  A
C760        H763   1.084   1_655  S
C764        C788   1.441       .  S
C764       C1093   1.400       .  A
C764        C769   1.400       .  A
C765       C1092   1.397       .  A
C765        C766   1.398   1_565  A
C765        H770   1.084   1_565  S
C766        C812   1.443       .  S
C766        C767   1.406       .  A
C767        C768   1.414   1_545  A
C767        H771   1.082       .  S
C768       C1097   1.403       .  A
C768        C774   1.493       .  S
C769       C1096   1.404       .  A
C769        H772   1.085       .  S
C773        C774   1.345   1_545  D
C773        H775   1.085       .  S
C774       H1104   1.085       .  S
H776       C1102   1.084       .  S
C777        C778   1.348   1_655  D
C777        H779   1.084       .  S
C781        C782   1.349       .  D
C781        H783   1.085       .  S
C782        H784   1.084       .  S
C785        C786   1.206       .  T
C787        C788   1.206       .  T
C789        C790   1.206       .  T
C791        C792   1.204       .  T
C793        C794   1.208       .  T
C795        C796   1.344       .  D
C795        H797   1.085       .  S
C796       H1290   1.085       .  S
H798       C1288   1.085   1_556  S
C799        C800   1.346       .  D
C799        H801   1.082       .  S
C803        C804   1.208       .  T
C805        C806   1.349       .  D
C805        H807   1.084       .  S
C806        H972   1.083       .  S
H808        C970   1.085       .  S
C809        C810   1.206       .  T
C811        C812   1.208       .  T
C813        C814   1.208       .  T
C815        C816   1.206       .  T
C817        C818   1.206       .  T
C819        C820   1.208       .  T
O821        C836   1.260       .  A
O821       Al829   1.908       .  S
C822        O832   1.257       .  A
C822        O823   1.259       .  A
C822        C975   1.435       .  S
O823       Al825   1.915       .  S
O824        C826   1.259       .  A
O824       Al825   1.895       .  S
Al825       O833   1.898       .  S
Al825       O835   1.910       .  S
Al825       O834   1.791       .  S
C826        O839   1.262       .  A
C826        C980   1.435       .  S
O827        C837   1.259       .  A
O827       Al829   1.902       .  S
O828        C841   1.257       .  A
O828       Al838   1.894       .  S
Al829       O842   1.919       .  S
Al829       O839   1.920       .  S
Al829       O834   1.789       .  S
O830        C837   1.259       .  A
O830       Al838   1.911       .  S
O831        C840   1.260       .  A
O831       Al838   1.908       .  S
O832       Al838   1.895       .  S
O833        C840   1.259       .  A
O834       Al838   1.791       .  S
O835        C836   1.259       .  A
C836        C977   1.439       .  S
C837        C981   1.437       .  S
C840        C974   1.430       .  S
C841        O842   1.262       .  A
C841        C983   1.436       .  S
C843        C984   1.442       .  S
C843        C844   1.399       .  A
C844        H849   1.085       .  S
C845        C846   1.402       .  A
C845        C969   1.490       .  S
C846        C847   1.400       .  A
C846        H850   1.085       .  S
C847        C968   1.440       .  S
C847        C848   1.401       .  A
C848        H851   1.084       .  S
C852       C1017   1.403   1_545  A
C853       C1016   1.416   1_655  A
C853        C854   1.412       .  A
C853        H858   1.077       .  S
C854        C970   1.488       .  S
C855        C856   1.402       .  A
C855        H859   1.081       .  S
C856       C1185   1.408       .  A
C856        C959   1.490       .  S
C857       C1184   1.404   1_545  A
C857        H860   1.082       .  S
C861        C957   1.443       .  S
C861        C862   1.404       .  A
C862        H867   1.080       .  S
C863        C964   1.493       .  S
C864        C865   1.407       .  A
C864        H868   1.080       .  S
C865        C978   1.444       .  S
C866        H869   1.084       .  S
C870        C956   1.442       .  S
C870        C871   1.401       .  A
C871        H876   1.082       .  S
C872       C1201   1.406       .  A
C872        C960   1.493       .  S
C873       C1200   1.403   1_556  A
C873        C874   1.401       .  A
C873        H877   1.085       .  S
C874        C973   1.436       .  S
C874       C1203   1.398   1_556  A
C875       C1202   1.396       .  A
C875        H878   1.084       .  S
O879        C894   1.261       .  A
O879       Al887   1.918       .  S
C880        O890   1.260       .  A
C880        O881   1.258       .  A
C880        C954   1.437       .  S
O881       Al883   1.900       .  S
O882        C884   1.262       .  A
O882       Al883   1.917       .  S
Al883       O891   1.922       .  S
Al883       O893   1.897       .  S
Al883       O892   1.790       .  S
C884        O897   1.259       .  A
C884        C949   1.436       .  S
O885        C895   1.262       .  A
O885       Al887   1.917       .  S
O886        C899   1.260       .  A
O886       Al896   1.915       .  S
Al887       O900   1.904       .  S
Al887       O897   1.898       .  S
Al887       O892   1.789       .  S
O888        C895   1.260       .  A
O888       Al896   1.900       .  S
O889        C898   1.259       .  A
O889       Al896   1.892       .  S
O890       Al896   1.914       .  S
O891        C898   1.262       .  A
O892       Al896   1.789       .  S
O893        C894   1.258       .  A
C894        C958   1.437       .  S
C895        C951   1.436       .  S
C898        C967   1.434       .  S
C899        O900   1.260       .  A
C899        C955   1.437       .  S
C901        C982   1.443       .  S
C901        C902   1.402       .  A
C901        C906   1.403       .  A
C902        C903   1.410       .  A
C902        H907   1.081       .  S
C903        C904   1.404       .  A
C903        C945   1.489       .  S
C904        C905   1.400       .  A
C904        H908   1.085       .  S
C905        C953   1.442       .  S
C905        C906   1.402       .  A
C906        H909   1.084       .  S
C910       C1243   1.408       .  A
C910        C946   1.489       .  S
C911       C1240   1.408       .  A
C911        H916   1.082       .  S
C912       C1239   1.405       .  A
C912        C913   1.409   1_565  A
C912        C937   1.491       .  S
C913        H917   1.082       .  S
C914        C915   1.407   1_445  A
C914        C942   1.488       .  S
C915       C1238   1.403       .  A
C915        H918   1.081   1_565  S
C919        C950   1.441       .  S
C919        C920   1.402       .  A
C920        H925   1.082       .  S
C921        C922   1.403       .  A
C921        C941   1.488       .  S
C922        C923   1.399       .  A
C922        H926   1.085       .  S
C923        C979   1.440       .  S
C923        C924   1.400       .  A
C924        H927   1.084   1_655  S
C928        C952   1.441       .  S
C928       C1257   1.399       .  A
C928        C933   1.401       .  A
C929       C1256   1.400   1_545  A
C929        C930   1.400       .  A
C929        H934   1.084       .  S
C930        C976   1.440       .  S
C930        C931   1.400       .  A
C931        C932   1.405       .  A
C931        H935   1.085       .  S
C932       C1261   1.411   1_545  A
C932        C938   1.492       .  S
C933       C1260   1.406       .  A
C933        H936   1.085       .  S
C937        C938   1.349   1_565  D
C937        H939   1.083       .  S
C938       H1268   1.085       .  S
H940       C1266   1.085       .  S
C941        C942   1.347   1_655  D
C941        H943   1.084       .  S
C945        C946   1.348       .  D
C945        H947   1.084       .  S
C946        H948   1.084       .  S
C949        C950   1.207       .  T
C951        C952   1.206       .  T
C953        C954   1.207       .  T
C955        C956   1.207       .  T
C957        C958   1.207       .  T
C959        C960   1.349   1_554  D
C959        H961   1.082       .  S
C960       H1126   1.085       .  S
H962       C1124   1.085       .  S
C963        C964   1.348       .  D
C963        H965   1.083       .  S
C967        C968   1.206       .  T
C969        C970   1.345       .  D
C969        H971   1.084       .  S
C973        C974   1.203       .  T
C975        C976   1.206       .  T
C977        C978   1.208       .  T
C979        C980   1.206       .  T
C981        C982   1.207       .  T
C983        C984   1.207       .  T
O985       C1000   1.259       .  A
O985       Al993   1.894       .  S
C986        O996   1.257       .  A
C986        O987   1.260       .  A
C986       C1139   1.438       .  S
O987       Al989   1.919       .  S
O988        C990   1.259       .  A
O988       Al989   1.897       .  S
Al989       O997   1.891       .  S
Al989       O999   1.916       .  S
Al989       O998   1.788       .  S
C990       O1003   1.261       .  A
C990       C1144   1.436       .  S
O991       C1001   1.259       .  A
O991       Al993   1.888       .  S
O992       C1005   1.257       .  A
O992      Al1002   1.901       .  S
Al993      O1006   1.920       .  S
Al993      O1003   1.923       .  S
Al993       O998   1.788       .  S
O994       C1001   1.263       .  A
O994      Al1002   1.917       .  S
O995       C1004   1.262       .  A
O995      Al1002   1.916       .  S
O996      Al1002   1.896       .  S
O997       C1004   1.258       .  A
O998      Al1002   1.786       .  S
O999       C1000   1.262       .  A
C1000      C1141   1.430       .  S
C1001      C1145   1.429       .  S
C1004      C1138   1.432       .  S
C1005      O1006   1.260       .  A
C1005      C1147   1.440       .  S
C1007      C1148   1.445       .  S
C1007      C1008   1.404       .  A
C1007      C1176   1.404       .  A
C1008      C1173   1.410       .  A
C1008      H1013   1.083       .  S
C1009      C1172   1.408       .  A
C1009      C1010   1.400   1_556  A
C1009      C1133   1.483       .  S
C1010      C1011   1.397       .  A
C1010      H1014   1.085       .  S
C1011      C1132   1.433       .  S
C1011      C1012   1.399   1_554  A
C1012      C1171   1.399       .  A
C1012      H1015   1.084   1_556  S
C1017      C1018   1.405       .  A
C1017      H1022   1.082       .  S
C1018      C1134   1.483       .  S
C1019      C1020   1.398       .  A
C1019      H1023   1.085       .  S
C1020      C1123   1.481       .  S
C1021      H1024   1.082       .  S
C1025      C1121   1.439       .  S
C1025      C1026   1.401       .  A
C1025      C1194   1.401       .  A
C1026      C1191   1.409   1_554  A
C1026      H1031   1.082       .  S
C1027      C1190   1.413       .  A
C1027      C1128   1.493       .  S
C1028      C1029   1.398       .  A
C1028      H1032   1.085       .  S
C1029      C1142   1.435       .  S
C1030      C1189   1.399       .  A
C1030      H1033   1.084       .  S
C1034      C1120   1.435       .  S
C1034      C1035   1.399       .  A
C1034      C1203   1.398   1_565  A
C1035      C1200   1.407   1_565  A
C1035      H1040   1.083       .  S
C1036      C1199   1.406   1_545  A
C1036      C1124   1.481       .  S
C1037      C1038   1.399       .  A
C1037      H1041   1.085       .  S
C1038      C1137   1.437       .  S
C1039      C1198   1.404   1_545  A
C1039      H1042   1.084   1_545  S
O1043      C1058   1.258       .  A
O1043     Al1051   1.909       .  S
C1044      O1054   1.257       .  A
C1044      O1045   1.258       .  A
C1044      C1118   1.433       .  S
O1045     Al1047   1.903       .  S
O1046      C1048   1.261       .  A
O1046     Al1047   1.911       .  S
Al1047     O1055   1.913       .  S
Al1047     O1057   1.896       .  S
Al1047     O1056   1.787       .  S
C1048      O1061   1.257       .  A
C1048      C1113   1.430       .  S
O1049      C1059   1.261       .  A
O1049     Al1051   1.911       .  S
O1050      C1063   1.258       .  A
O1050     Al1060   1.909       .  S
Al1051     O1064   1.894       .  S
Al1051     O1061   1.891       .  S
Al1051     O1056   1.788       .  S
O1052      C1059   1.260       .  A
O1052     Al1060   1.898       .  S
O1053      C1062   1.259       .  A
O1053     Al1060   1.890       .  S
O1054     Al1060   1.904       .  S
O1055      C1062   1.261       .  A
O1056     Al1060   1.788       .  S
O1057      C1058   1.257       .  A
C1058      C1122   1.433       .  S
C1059      C1115   1.430       .  S
C1062      C1131   1.428       .  S
C1063      O1064   1.257       .  A
C1063      C1119   1.429       .  S
C1065      C1146   1.435       .  S
C1065      C1066   1.398       .  A
C1065      C1070   1.397       .  A
C1066      C1067   1.404       .  A
C1066      H1071   1.085       .  S
C1067      C1068   1.411       .  A
C1067      C1109   1.490       .  S
C1068      C1069   1.405       .  A
C1068      H1072   1.081       .  S
C1069      C1117   1.439       .  S
C1069      C1070   1.398       .  A
C1070      H1073   1.084       .  S
C1074      C1110   1.488       .  S
C1075      H1080   1.077       .  S
C1076      C1077   1.405       .  A
C1076      C1101   1.491       .  S
C1077      H1081   1.081       .  S
C1078      C1079   1.407   1_455  A
C1078      C1106   1.487       .  S
C1079      H1082   1.082       .  S
C1083      C1114   1.436       .  S
C1083      C1084   1.398       .  A
C1084      H1089   1.085       .  S
C1085      C1086   1.404       .  A
C1085      C1105   1.491       .  S
C1086      C1087   1.399       .  A
C1086      H1090   1.085       .  S
C1087      C1143   1.441       .  S
C1087      C1088   1.401   1_655  A
C1088      H1091   1.084       .  S
C1092      C1116   1.436       .  S
C1092      C1097   1.400       .  A
C1093      C1094   1.401       .  A
C1093      H1098   1.084       .  S
C1094      C1140   1.443       .  S
C1094      C1095   1.404       .  A
C1095      C1096   1.411       .  A
C1095      H1099   1.082       .  S
C1096      C1102   1.490       .  S
C1097      H1100   1.085       .  S
C1101      C1102   1.348       .  D
C1101      H1103   1.084       .  S
C1105      C1106   1.347   1_655  D
C1105      H1107   1.085       .  S
C1109      C1110   1.347       .  D
C1109      H1111   1.085       .  S
C1110      H1112   1.083       .  S
C1113      C1114   1.203       .  T
C1115      C1116   1.203       .  T
C1117      C1118   1.205       .  T
C1119      C1120   1.202       .  T
C1121      C1122   1.205       .  T
C1123      C1124   1.345   1_565  D
C1123      H1125   1.085       .  S
C1127      C1128   1.349       .  D
C1127      H1129   1.084       .  S
C1131      C1132   1.202       .  T
C1133      C1134   1.344       .  D
C1133      H1135   1.085       .  S
C1134      H1300   1.085       .  S
H1136      C1298   1.086       .  S
C1137      C1138   1.204       .  T
C1139      C1140   1.208       .  T
C1141      C1142   1.203       .  T
C1143      C1144   1.206       .  T
C1145      C1146   1.202       .  T
C1147      C1148   1.209       .  T
O1149      C1164   1.259       .  A
O1149     Al1157   1.898       .  S
C1150      O1160   1.257       .  A
C1150      O1151   1.262       .  A
C1150      C1303   1.435       .  S
O1151     Al1153   1.923       .  S
O1152      C1154   1.259       .  A
O1152     Al1153   1.901       .  S
Al1153     O1161   1.902       .  S
Al1153     O1163   1.922       .  S
Al1153     O1162   1.787       .  S
C1154      O1167   1.260       .  A
C1154      C1308   1.435       .  S
O1155      C1165   1.259       .  A
O1155     Al1157   1.894       .  S
O1156      C1169   1.258       .  A
O1156     Al1166   1.895       .  S
Al1157     O1170   1.911       .  S
Al1157     O1167   1.913       .  S
Al1157     O1162   1.787       .  S
O1158      C1165   1.260       .  A
O1158     Al1166   1.913       .  S
O1159      C1168   1.259       .  A
O1159     Al1166   1.906       .  S
O1160     Al1166   1.890       .  S
O1161      C1168   1.260       .  A
O1162     Al1166   1.788       .  S
O1163      C1164   1.263       .  A
C1164      C1305   1.437       .  S
C1165      C1309   1.431       .  S
C1168      C1302   1.432       .  S
C1169      O1170   1.260       .  A
C1169      C1311   1.431       .  S
C1171      C1312   1.437       .  S
C1171      C1172   1.402       .  A
C1172      H1177   1.082       .  S
C1173      C1174   1.399       .  A
C1173      C1297   1.485       .  S
C1174      C1175   1.398       .  A
C1174      H1178   1.085       .  S
C1175      C1296   1.439       .  S
C1175      C1176   1.403       .  A
C1176      H1179   1.084       .  S
C1181      C1182   1.407       .  A
C1181      H1186   1.081       .  S
C1182      C1298   1.487       .  S
C1183      C1184   1.398   1_556  A
C1183      H1187   1.085       .  S
C1184      C1287   1.484       .  S
C1185      H1188   1.082       .  S
C1189      C1285   1.442       .  S
C1189      C1190   1.404       .  A
C1190      H1195   1.081       .  S
C1191      C1292   1.489       .  S
C1192      C1193   1.399       .  A
C1192      H1196   1.085       .  S
C1193      C1306   1.442       .  S
C1194      H1197   1.084       .  S
C1198      C1284   1.440       .  S
C1198      C1199   1.398       .  A
C1199      H1204   1.083       .  S
C1200      C1288   1.484       .  S
C1201      C1202   1.401       .  A
C1201      H1205   1.085       .  S
C1202      C1301   1.438       .  S
C1203      H1206   1.084   1_545  S
O1207      C1222   1.260       .  A
O1207     Al1215   1.917       .  S
C1208      O1218   1.257       .  A
C1208      O1209   1.258       .  A
C1208      C1282   1.437       .  S
O1209     Al1211   1.905       .  S
O1210      C1212   1.261       .  A
O1210     Al1211   1.912       .  S
Al1211     O1219   1.919       .  S
Al1211     O1221   1.891       .  S
Al1211     O1220   1.791       .  S
C1212      O1225   1.259       .  A
C1212      C1277   1.437       .  S
O1213      C1223   1.263       .  A
O1213     Al1215   1.919       .  S
O1214      C1227   1.256       .  A
O1214     Al1224   1.904       .  S
Al1215     O1228   1.907       .  S
Al1215     O1225   1.900       .  S
Al1215     O1220   1.791       .  S
O1216      C1223   1.262       .  A
O1216     Al1224   1.904       .  S
O1217      C1226   1.260       .  A
O1217     Al1224   1.897       .  S
O1218     Al1224   1.908       .  S
O1219      C1226   1.262       .  A
O1220     Al1224   1.791       .  S
O1221      C1222   1.256       .  A
C1222      C1286   1.436       .  S
C1223      C1279   1.437       .  S
C1226      C1295   1.434       .  S
C1227      O1228   1.259       .  A
C1227      C1283   1.435       .  S
C1229      C1310   1.437       .  S
C1229      C1230   1.397       .  A
C1229      C1234   1.399       .  A
C1230      C1231   1.403       .  A
C1230      H1235   1.085       .  S
C1231      C1232   1.413       .  A
C1231      C1273   1.491       .  S
C1232      C1233   1.406       .  A
C1232      H1236   1.081       .  S
C1233      C1281   1.444       .  S
C1233      C1234   1.401       .  A
C1234      H1237   1.084       .  S
C1238      C1274   1.489       .  S
C1239      H1244   1.082       .  S
C1240      C1241   1.406       .  A
C1240      C1265   1.491       .  S
C1241      H1245   1.081       .  S
C1242      C1243   1.404       .  A
C1242      C1270   1.487       .  S
C1243      H1246   1.081       .  S
C1247      C1278   1.442       .  S
C1247      C1248   1.399       .  A
C1248      H1253   1.085       .  S
C1249      C1250   1.408   1_455  A
C1249      C1269   1.487       .  S
C1250      C1251   1.401       .  A
C1250      H1254   1.081       .  S
C1251      C1307   1.440       .  S
C1251      C1252   1.402       .  A
C1252      H1255   1.084       .  S
C1256      C1280   1.443       .  S
C1256      C1261   1.405       .  A
C1257      C1258   1.400       .  A
C1257      H1262   1.084       .  S
C1258      C1304   1.440       .  S
C1258      C1259   1.404       .  A
C1259      C1260   1.411       .  A
C1259      H1263   1.081       .  S
C1260      C1266   1.491       .  S
C1261      H1264   1.081       .  S
C1265      C1266   1.350       .  D
C1265      H1267   1.084       .  S
C1269      C1270   1.348   1_455  D
C1269      H1271   1.085       .  S
C1273      C1274   1.347       .  D
C1273      H1275   1.085       .  S
C1274      H1276   1.083       .  S
C1277      C1278   1.207       .  T
C1279      C1280   1.207       .  T
C1281      C1282   1.208       .  T
C1283      C1284   1.206       .  T
C1285      C1286   1.207       .  T
C1287      C1288   1.346   1_565  D
C1287      H1289   1.085       .  S
C1291      C1292   1.349   1_554  D
C1291      H1293   1.084       .  S
C1295      C1296   1.205       .  T
C1297      C1298   1.344       .  D
C1297      H1299   1.084       .  S
C1301      C1302   1.204       .  T
C1303      C1304   1.206       .  T
C1305      C1306   1.207       .  T
C1307      C1308   1.206       .  T
C1309      C1310   1.204       .  T
C1311      C1312   1.204       .  T
