geometry optimzed in LAMMPS
_audit_creation_date              2020-11-30 
_audit_creation_method            'lammps2cif' 
_symmetry_space_group_name_H-M    'P1' 
_symmetry_Int_Tables_number       1 
_symmetry_cell_setting            triclinic 
loop_ 
_symmetry_equiv_pos_as_xyz 
  x,y,z 
_cell_length_a                    30.50705258 
_cell_length_b                    31.05142920680443 
_cell_length_c                    69.02335483905794 
_cell_angle_alpha                 90.12282927600047 
_cell_angle_beta                  89.49211649295123 
_cell_angle_gamma                 90.6426760607057 
loop_ 
_atom_site_label 
_atom_site_type_symbol 
_atom_site_fract_x 
_atom_site_fract_y 
_atom_site_fract_z 
_atom_site_charge 
C1          C  0.63389105  0.37436929  0.84414763     0.80600
N2          N  0.61748648  0.33749402  0.83643335    -0.77700
C3          C  0.63691551  0.31864133  0.82094615     0.83000
N4          N  0.67299879  0.33757703  0.81297655    -0.77700
C5          C  0.69044757  0.37425153  0.82052142     0.83100
N6          N  0.67050921  0.39268386  0.83616479    -0.79400
C7          C  0.09204478  0.22204739  0.62858960     0.80600
N8          N  0.07406248  0.25858230  0.63572172    -0.77700
C9          C  0.09099856  0.27828653  0.65161615     0.83000
N10         N  0.12590960  0.26030088  0.66060635    -0.77700
C11         C  0.14436032  0.22364598  0.65356164     0.83100
N12         N  0.12722992  0.20503060  0.63746794    -0.79400
C13         C  0.24396570  0.73946021  0.82961930     0.80600
N14         N  0.20909671  0.71939260  0.82142183    -0.77700
C15         C  0.19334723  0.73320532  0.80421140     0.83000
N16         N  0.21303939  0.76754627  0.79528386    -0.77700
C17         C  0.24788222  0.78817114  0.80345939     0.83100
N18         N  0.26307910  0.77358226  0.82062249    -0.79400
C19         C  0.69331522  0.85408018  0.59989524     0.80600
N20         N  0.71401986  0.82129571  0.60874495    -0.77700
C21         C  0.70281042  0.80913431  0.62699174     0.83000
N22         N  0.66981281  0.83007048  0.63632390    -0.77700
C23         C  0.64841753  0.86304080  0.62761718     0.83100
N24         N  0.66098229  0.87507734  0.60949058    -0.79400
C25         C  0.88854241  0.60284586  0.70527764     0.86900
C26         C  0.92574518  0.62356981  0.71735217    -0.53400
C27         C  0.94793659  0.59535529  0.72871254     0.09800
C28         C  0.93106156  0.54868752  0.72710305     0.20700
C29         C  0.91139427  0.56656658  0.69395558    -0.54100
C30         C  0.93357170  0.53830208  0.70533427     0.09900
C31         C  0.85995260  0.57977107  0.72054962    -0.53600
C32         C  0.88185824  0.55123645  0.73176341     0.10400
H33         H  0.93450359  0.65747587  0.71754339     0.15000
H34         H  0.94862885  0.52543078  0.73634830     0.00700
H35         H  0.90982756  0.56335125  0.67830330     0.15300
H36         H  0.82498684  0.58515916  0.72221756     0.15100
C37         C  0.45982446  0.10330476  0.74346938     0.86900
C38         C  0.42448277  0.12229223  0.73022889    -0.53400
C39         C  0.40411501  0.09249854  0.71879738     0.09800
C40         C  0.42052323  0.04633227  0.72147396     0.20700
C41         C  0.43470302  0.06797292  0.75470738    -0.54100
C42         C  0.41494517  0.03770234  0.74327781     0.09900
C43         C  0.49056867  0.07956168  0.72950968    -0.53600
C44         C  0.47052327  0.04935514  0.71813700     0.10400
H45         H  0.41366750  0.15537896  0.73036309     0.15000
H46         H  0.40328198  0.02239301  0.71221954     0.00700
H47         H  0.43269257  0.06696329  0.77041696     0.15300
H48         H  0.52534497  0.08708448  0.72850452     0.15100
O49         O  0.36377533  0.57910096  0.99642560    -0.72600
O50         O  0.43223796  0.51314243  0.95617878    -0.73600
O51         O  0.43147251  0.51693320  0.99717325    -0.62200
O52         O  0.36451430  0.57501060  0.95534221    -0.70600
O53         O  0.41367690  0.62789741  0.95481023    -0.70100
O54         O  0.48211944  0.56851158  0.99584460    -0.61400
O55         O  0.48108445  0.56650970  0.95493524    -0.73900
O56         O  0.41503824  0.63035247  0.99585401    -0.72700
Cu57       Cu  0.39618796  0.54421278  0.97631464     1.04600
Cu58       Cu  0.44962879  0.60014020  0.97532239     1.04300
C59         C  0.37923411  0.61487549  0.00272436     0.93600
C60         C  0.46740680  0.52976700  0.94909963     0.92800
C61         C  0.46762608  0.53320007  0.00304969     0.84900
C62         C  0.37849125  0.61064469  0.94832791     0.91200
O63         O  0.89632317  0.03068945  0.45363776    -0.72600
O64         O  0.94435330  0.08882878  0.50079596    -0.73600
O65         O  0.96148938  0.09402285  0.46062182    -0.62200
O66         O  0.87861522  0.02620546  0.49369098    -0.70600
O67         O  0.92752581  0.97457713  0.49688663    -0.70100
O68         O  0.01081417  0.04229380  0.46266159    -0.61400
O69         O  0.99393150  0.03756049  0.50335177    -0.73900
O70         O  0.94502389  0.97888370  0.45653882    -0.72700
Cu71       Cu  0.91854864  0.06168971  0.47710741     1.04600
Cu72       Cu  0.97114007  0.00653219  0.47997917     1.04300
C73         C  0.91292287  0.99544168  0.44759792     0.93600
C74         C  0.97665528  0.07222149  0.50963506     0.92800
C75         C  0.99897743  0.07891813  0.45619694     0.84900
C76         C  0.88956957  0.98980310  0.50057097     0.91200
C77         C  0.60440806  0.39528199  0.11892337     0.80600
N78         N  0.58079530  0.36277319  0.12708732    -0.77700
C79         C  0.59524472  0.34190682  0.14297755     0.83000
N80         N  0.63417144  0.35446973  0.15083106    -0.77700
C81         C  0.65849238  0.38691725  0.14273252     0.83100
N82         N  0.64333580  0.40712987  0.12672782    -0.79400
C83         C  0.14884555  0.23620168  0.34756521     0.80600
N84         N  0.18311485  0.21746702  0.33835509    -0.77700
C85         C  0.19773483  0.23269190  0.32101731     0.83000
N86         N  0.17705621  0.26663288  0.31291837    -0.77700
C87         C  0.14234159  0.28536378  0.32186302     0.83100
N88         N  0.12822949  0.26974952  0.33919425    -0.79400
C89         C  0.23400828  0.75554004  0.11784292     0.80600
N90         N  0.19889216  0.73784229  0.12714200    -0.77700
C91         C  0.18487005  0.75333407  0.14448342     0.83000
N92         N  0.20628373  0.78742554  0.15251738    -0.77700
C93         C  0.24140222  0.80604053  0.14341540     0.83100
N94         N  0.25494250  0.78980788  0.12606822    -0.79400
C95         C  0.80117659  0.88230133  0.32080103     0.80600
N96         N  0.81851221  0.84812140  0.31138544    -0.77700
C97         C  0.80245642  0.83522116  0.29401683     0.83000
N98         N  0.76872427  0.85706252  0.28614369    -0.77700
C99         C  0.75154453  0.89175103  0.29535761     0.83100
N100        N  0.76750595  0.90391210  0.31282880    -0.79400
C101        C  0.97479645  0.50008873  0.24123071     0.86900
C102        C  0.00413112  0.52197965  0.22581939    -0.53400
C103        C  0.98234159  0.54833538  0.21342144     0.09800
C104        C  0.93272941  0.55005617  0.21741791     0.20700
C105        C  0.95144424  0.53836606  0.25112952    -0.54100
C106        C  0.92966615  0.56422079  0.23862173     0.09900
C107        C  0.93832578  0.47714680  0.22992029    -0.53600
C108        C  0.91647242  0.50305045  0.21747108     0.10400
H109        H  0.03963041  0.51966919  0.22589512     0.15000
H110        H  0.91478434  0.57126138  0.20733221     0.00700
H111        H  0.95276234  0.54673191  0.26635972     0.15300
H112        H  0.93040921  0.44315752  0.23163442     0.15100
C113        C  0.49105583  0.03793800  0.23525330     0.86900
C114        C  0.50047117  0.07149920  0.21929729    -0.53400
C115        C  0.46402285  0.08835781  0.21097725     0.09800
C116        C  0.42087308  0.07007551  0.21946184     0.20700
C117        C  0.46149910  0.06249580  0.24947784    -0.54100
C118        C  0.42457543  0.07842214  0.24133602     0.09900
C119        C  0.46108674  0.00429843  0.22563050    -0.53600
C120        C  0.42436255  0.02090162  0.21744191     0.10400
H121        H  0.53265547  0.08433963  0.21574328     0.15000
H122        H  0.39087438  0.08344385  0.21288592     0.00700
H123        H  0.46883415  0.06680205  0.26473023     0.15300
H124        H  0.46878568  0.97024697  0.22508259     0.15100
C125        C  0.64618518  0.91103158  0.26889688    -0.01600
C126        C  0.64191261  0.95596614  0.27055655     0.06900
C127        C  0.67421838  0.98021467  0.28006161    -0.07600
C128        C  0.71054911  0.96010368  0.28811869     0.04400
C129        C  0.71454537  0.91485695  0.28675774    -0.14800
C130        C  0.68236210  0.89085448  0.27695599    -0.08200
C131        C  0.60449066  0.97823023  0.26186108     0.05300
C132        C  0.56286842  0.97293103  0.27016541    -0.09300
C133        C  0.52615127  0.99156988  0.26176382     0.00300
C134        C  0.53084810  0.01728714  0.24481100     0.00200
C135        C  0.57308735  0.02112694  0.23634617    -0.12800
C136        C  0.60957667  0.00231489  0.24480405     0.00600
C137        C  0.48423029  0.98323627  0.27097611     0.40000
C138        C  0.65176670  0.00662085  0.23527953     0.36600
C139        C  0.61431173  0.88523684  0.25859101     0.36300
C140        C  0.74411062  0.98684340  0.29680551     0.37100
N141        N  0.45094720  0.97681694  0.27866988    -0.43700
N142        N  0.68558484  0.00996161  0.22767183    -0.44200
N143        N  0.77107910  0.00834229  0.30366077    -0.44900
N144        N  0.58870950  0.86476805  0.25027180    -0.43000
H145        H  0.68525901  0.85616954  0.27572801     0.13200
H146        H  0.67117408  0.01493563  0.28099914     0.09700
H147        H  0.55903811  0.95356025  0.28315142     0.10700
H148        H  0.57836311  0.03716619  0.22268203     0.16600
C149        C  0.86148016  0.72991146  0.28781780    -0.01600
C150        C  0.85982794  0.72326745  0.26764678     0.06900
C151        C  0.83758272  0.75265921  0.25602713    -0.07600
C152        C  0.81786947  0.78904248  0.26415805     0.04400
C153        C  0.82100123  0.79672398  0.28435359    -0.14800
C154        C  0.84273128  0.76659229  0.29591398    -0.08200
C155        C  0.87900378  0.68450963  0.25862390     0.05300
C156        C  0.85092274  0.65478743  0.24955958    -0.09300
C157        C  0.86684519  0.61567186  0.24252212     0.00300
C158        C  0.91145575  0.60588143  0.24474405     0.00200
C159        C  0.93988871  0.63634115  0.25309634    -0.12800
C160        C  0.92416200  0.67572467  0.25981507     0.00600
C161        C  0.83634038  0.58555764  0.23393828     0.40000
C162        C  0.95489806  0.70655827  0.26780968     0.36600
C163        C  0.88075230  0.69873906  0.30061303     0.36300
C164        C  0.79515682  0.81769986  0.25131627     0.37100
N165        N  0.81125092  0.56196408  0.22709399    -0.43700
N166        N  0.97957134  0.73115877  0.27425260    -0.44200
N167        N  0.77667201  0.84036074  0.24098512    -0.41500
N168        N  0.89618825  0.67373102  0.31083731    -0.43000
H169        H  0.84443759  0.77114664  0.31147292     0.13200
H170        H  0.83559587  0.74704971  0.24053748     0.09700
H171        H  0.81623725  0.66164502  0.24852049     0.10700
H172        H  0.97450588  0.62928413  0.25431332     0.16600
C173        C  0.35138244  0.97993772  0.17722065    -0.01600
C174        C  0.33509448  0.94084957  0.18498958     0.06900
C175        C  0.34619535  0.92947230  0.20395408    -0.07600
C176        C  0.37404640  0.95562284  0.21499367     0.04400
C177        C  0.39176638  0.99393244  0.20697642    -0.14800
C178        C  0.37932781  0.00618740  0.18826913    -0.08200
C179        C  0.30898130  0.90973932  0.17330466     0.05300
C180        C  0.32882478  0.89022448  0.15720264    -0.09300
C181        C  0.30769383  0.85697366  0.14703644     0.00300
C182        C  0.26513166  0.84281430  0.15285285     0.00200
C183        C  0.24499794  0.86353097  0.16874879    -0.12800
C184        C  0.26652482  0.89636279  0.17899424     0.00600
C185        C  0.33194424  0.83698848  0.13143988     0.40000
C186        C  0.24449351  0.91565084  0.19540456     0.36600
C187        C  0.33990494  0.99372751  0.15798364     0.36300
C188        C  0.38308003  0.94261852  0.23459984     0.37100
N189        N  0.35189292  0.82116205  0.11904353    -0.43700
N190        N  0.22690781  0.93097259  0.20860303    -0.44200
N191        N  0.38988756  0.93170564  0.25029144    -0.41500
N192        N  0.33075495  0.00489226  0.14256911    -0.43000
H193        H  0.39249627  0.03571722  0.18205014     0.13200
H194        H  0.33368568  0.89951938  0.21002641     0.09700
H195        H  0.36183926  0.89994591  0.15300774     0.10700
H196        H  0.21238211  0.85376526  0.17345655     0.16600
C197        C  0.08434545  0.68307346  0.15217843    -0.01600
C198        C  0.08365482  0.67783529  0.17240685     0.06900
C199        C  0.11330273  0.70137903  0.18378306    -0.07600
C200        C  0.14521931  0.72815679  0.17518076     0.04400
C201        C  0.14799738  0.73114998  0.15471463    -0.14800
C202        C  0.11644622  0.70931636  0.14350829    -0.08200
C203        C  0.05509712  0.64496609  0.18177973     0.05300
C204        C  0.06562314  0.60140571  0.17942350    -0.09300
C205        C  0.04142054  0.56915162  0.18895904     0.00300
C206        C  0.00579804  0.58041448  0.20107251     0.00200
C207        C  0.99433038  0.62401826  0.20277425    -0.12800
C208        C  0.01882204  0.65625122  0.19336773     0.00600
C209        C  0.05357893  0.52486964  0.18586921     0.40000
C210        C  0.00634198  0.70062899  0.19587946     0.36600
C211        C  0.05248307  0.66160714  0.14007881     0.36300
C212        C  0.17594942  0.74994094  0.18774055     0.37100
N213        N  0.06361981  0.48948330  0.18328721    -0.43700
N214        N  0.99626323  0.73618563  0.19789571    -0.44200
N215        N  0.20039322  0.76743740  0.19788239    -0.41500
N216        N  0.02667830  0.64461078  0.13044373    -0.43000
H217        H  0.11732630  0.71207391  0.12784751     0.13200
H218        H  0.11254811  0.69748915  0.19940004     0.09700
H219        H  0.09336798  0.59268903  0.17034867     0.10700
H220        H  0.96712626  0.63322936  0.21201721     0.16600
C221        C  0.02680406  0.44688995  0.28592584    -0.01600
C222        C  0.04895428  0.41205421  0.27745201     0.06900
C223        C  0.04652386  0.40558541  0.25742928    -0.07600
C224        C  0.02281285  0.43351667  0.24573601     0.04400
C225        C  0.00044855  0.46909811  0.25406135    -0.14800
C226        C  0.00284170  0.47474319  0.27433866    -0.08200
C227        C  0.07373421  0.38122532  0.28933898     0.05300
C228        C  0.05114018  0.35706701  0.30340316    -0.09300
C229        C  0.07281129  0.32688114  0.31471887     0.00300
C230        C  0.11821892  0.31983576  0.31175519     0.00200
C231        C  0.14082418  0.34467897  0.29776804    -0.12800
C232        C  0.11907541  0.37527417  0.28667253     0.00600
C233        C  0.04682719  0.30307250  0.32870699     0.40000
C234        C  0.14399782  0.40062161  0.27283809     0.36600
C235        C  0.02897343  0.45523831  0.30650472     0.36300
C236        C  0.02175553  0.42433975  0.22521073     0.37100
N237        N  0.02547468  0.28458976  0.33993679    -0.43700
N238        N  0.16382742  0.42102968  0.26174269    -0.44200
N239        N  0.02076420  0.41669158  0.20880356    -0.41500
N240        N  0.03072680  0.46183189  0.32298850    -0.43000
H241        H  0.98636692  0.50081351  0.28168758     0.13200
H242        H  0.06307460  0.37829174  0.25091522     0.09700
H243        H  0.01615616  0.36152957  0.30538140     0.10700
H244        H  0.17567390  0.34017508  0.29543139     0.16600
C245        C  0.26716897  0.19669232  0.27834209    -0.01600
C246        C  0.29295457  0.16448480  0.28660118     0.06900
C247        C  0.28905026  0.15546190  0.30637437    -0.07600
C248        C  0.25932624  0.17784603  0.31808142     0.04400
C249        C  0.23226550  0.20971241  0.30981104    -0.14800
C250        C  0.23705021  0.21881499  0.28988745    -0.08200
C251        C  0.32618154  0.14164569  0.27504396     0.05300
C252        C  0.36874562  0.15885582  0.27427201    -0.09300
C253        C  0.40136522  0.13862036  0.26340058     0.00300
C254        C  0.39107839  0.10098223  0.25282861     0.00200
C255        C  0.34839698  0.08384955  0.25352543    -0.12800
C256        C  0.31598799  0.10362178  0.26478302     0.00600
C257        C  0.44458578  0.15802067  0.26264096     0.40000
C258        C  0.27291224  0.08402026  0.26594463     0.36600
C259        C  0.27150083  0.20784460  0.25809883     0.36300
C260        C  0.25865384  0.16799206  0.33851629     0.37100
N261        N  0.47922368  0.17354644  0.26197495    -0.43700
N262        N  0.23851141  0.06805929  0.26698657    -0.44200
N263        N  0.25842073  0.16000363  0.35488825    -0.41500
N264        N  0.27515259  0.21687751  0.24190198    -0.43000
H265        H  0.21699535  0.24305975  0.28313575     0.13200
H266        H  0.30978347  0.13116905  0.31271110     0.09700
H267        H  0.37637054  0.18823065  0.28214643     0.10700
H268        H  0.34070498  0.05455273  0.24559809     0.16600
C269        C  0.55885879  0.25465460  0.17834534    -0.01600
C270        C  0.52192174  0.23665814  0.16915087     0.06900
C271        C  0.50795692  0.25377408  0.15161078    -0.07600
C272        C  0.53084080  0.28792144  0.14278959     0.04400
C273        C  0.56858906  0.30615215  0.15181839    -0.14800
C274        C  0.58159830  0.28918287  0.16976444    -0.08200
C275        C  0.50023326  0.19730688  0.17678420     0.05300
C276        C  0.46459388  0.20078790  0.18960348    -0.09300
C277        C  0.44811455  0.16441216  0.19939220     0.00300
C278        C  0.46861887  0.12413396  0.19675565     0.00200
C279        C  0.50123844  0.12031999  0.18234709    -0.12800
C280        C  0.51697813  0.15642871  0.17235217     0.00600
C281        C  0.41137275  0.17016377  0.21237354     0.40000
C282        C  0.55178072  0.15123457  0.15825692     0.36600
C283        C  0.57467815  0.23729026  0.19634747     0.36300
C284        C  0.51531893  0.30166273  0.12412033     0.37100
N285        N  0.38115401  0.17578431  0.22226942    -0.43700
N286        N  0.57952525  0.14727247  0.14687460    -0.44200
N287        N  0.50259362  0.31213043  0.10912066    -0.41500
N288        N  0.58734543  0.22317075  0.21072845    -0.43000
H289        H  0.61005343  0.30238150  0.17707490     0.13200
H290        H  0.47982766  0.23937439  0.14446567     0.09700
H291        H  0.45075953  0.23220495  0.19249606     0.10700
H292        H  0.51634721  0.08935604  0.17973735     0.16600
C293        C  0.84857088  0.47463129  0.17365556    -0.01600
C294        C  0.81133019  0.45471346  0.18221427     0.06900
C295        C  0.80887990  0.45091563  0.20243960    -0.07600
C296        C  0.84265716  0.46652257  0.21415311     0.04400
C297        C  0.87951136  0.48710415  0.20562650    -0.14800
C298        C  0.88190897  0.49134986  0.18543012    -0.08200
C299        C  0.77442884  0.43713234  0.17060921     0.05300
C300        C  0.76379465  0.39317819  0.17217978    -0.09300
C301        C  0.72685726  0.37573197  0.16298959     0.00300
C302        C  0.69959585  0.40262066  0.15191873     0.00200
C303        C  0.71110027  0.44644100  0.14997263    -0.12800
C304        C  0.74778590  0.46386706  0.15930881     0.00600
C305        C  0.71839695  0.33010242  0.16496647     0.40000
C306        C  0.75603162  0.50964746  0.15785668     0.36600
C307        C  0.85423799  0.47653594  0.15289027     0.36300
C308        C  0.83809654  0.46212438  0.23490724     0.37100
N309        N  0.71180566  0.29350632  0.16660241    -0.43700
N310        N  0.76266112  0.54631654  0.15664093    -0.44200
N311        N  0.83445523  0.45863569  0.25153464    -0.41500
N312        N  0.85893735  0.47796487  0.13624803    -0.43000
H313        H  0.91054951  0.50651711  0.17883338     0.13200
H314        H  0.78032300  0.43572955  0.20910027     0.09700
H315        H  0.78426728  0.37249220  0.18083690     0.10700
H316        H  0.69046931  0.46767501  0.14167707     0.16600
C317        C  0.13433046  0.19453086  0.39856983    -0.01600
C318        C  0.09355046  0.17295589  0.39719334     0.06900
C319        C  0.07103207  0.17291573  0.37959209    -0.07600
C320        C  0.08877061  0.19356784  0.36334295     0.04400
C321        C  0.12933304  0.21544023  0.36470227    -0.14800
C322        C  0.15202944  0.21558670  0.38228254    -0.08200
C323        C  0.07415516  0.14856684  0.41359180     0.05300
C324        C  0.05393009  0.17104120  0.42877942    -0.09300
C325        C  0.03046380  0.14891033  0.44324711     0.00300
C326        C  0.02778347  0.10340533  0.44277135     0.00200
C327        C  0.04986958  0.08097436  0.42802963    -0.12800
C328        C  0.07238850  0.10319765  0.41333124     0.00600
C329        C  0.00925090  0.17363173  0.45832360     0.40000
C330        C  0.09212280  0.07900129  0.39770193     0.36600
C331        C  0.15904166  0.19413476  0.41630051     0.36300
C332        C  0.06617387  0.18961613  0.34511125     0.37100
N333        N  0.99213243  0.19339085  0.47038513    -0.43700
N334        N  0.10774211  0.05990540  0.38504052    -0.44200
N335        N  0.04844167  0.18621172  0.33042588    -0.41500
N336        N  0.17887009  0.19363412  0.43051241    -0.43000
H337        H  0.18361164  0.23181691  0.38321747     0.13200
H338        H  0.03995538  0.15579965  0.37846556     0.09700
H339        H  0.05519786  0.20596722  0.42893243     0.10700
H340        H  0.04764480  0.04610977  0.42742589     0.16600
C341        C  0.80095306  0.91230461  0.37355691    -0.01600
C342        C  0.84572916  0.92107223  0.37679176     0.06900
C343        C  0.87628719  0.91469245  0.36179515    -0.07600
C344        C  0.86256692  0.90129122  0.34345672     0.04400
C345        C  0.81749065  0.89477247  0.33996517    -0.14800
C346        C  0.78710283  0.89999538  0.35511233    -0.08200
C347        C  0.86119725  0.93925036  0.39533867     0.05300
C348        C  0.89004525  0.91545036  0.40664081    -0.09300
C349        C  0.90706223  0.93251329  0.42382345     0.00300
C350        C  0.89504984  0.97447884  0.42993228     0.00200
C351        C  0.86572489  0.99790515  0.41851646    -0.12800
C352        C  0.84917119  0.98088814  0.40130769     0.00600
C353        C  0.93662429  0.90595323  0.43467436     0.40000
C354        C  0.82139361  0.00749815  0.38957314     0.36600
C355        C  0.76887250  0.91503825  0.38900538     0.36300
C356        C  0.89504832  0.89640118  0.32828284     0.37100
N357        N  0.96037821  0.88449058  0.44324926    -0.43700
N358        N  0.79918098  0.02872817  0.38012054    -0.44200
N359        N  0.92106580  0.89244456  0.31612338    -0.41500
N360        N  0.74317737  0.91700123  0.40140021    -0.43000
H361        H  0.75253492  0.89390566  0.35257006     0.13200
H362        H  0.91077632  0.92126195  0.36431329     0.09700
H363        H  0.89946054  0.88347662  0.40192810     0.10700
H364        H  0.85637923  0.03020011  0.42274228     0.16600
C365        C  0.28744863  0.66446849  0.03221771    -0.01600
C366        C  0.31042096  0.68206448  0.04808889     0.06900
C367        C  0.35614208  0.67824347  0.04871363    -0.07600
C368        C  0.37909957  0.65718452  0.03392534     0.04400
C369        C  0.35606174  0.63836540  0.01832329    -0.14800
C370        C  0.31027063  0.64219749  0.01765604    -0.08200
C371        C  0.28759019  0.70260260  0.06476514     0.05300
C372        C  0.25935108  0.67742193  0.07629183    -0.09300
C373        C  0.24091863  0.69383699  0.09340141     0.00300
C374        C  0.25053179  0.73679954  0.09926103     0.00200
C375        C  0.27794921  0.76222526  0.08728415    -0.12800
C376        C  0.29647919  0.74553271  0.07025540     0.00600
C377        C  0.21419476  0.66477933  0.10493397     0.40000
C378        C  0.32451691  0.77306509  0.05859554     0.36600
C379        C  0.24084188  0.67038176  0.03021135     0.36300
C380        C  0.42614696  0.65406136  0.03550325     0.37100
N381        N  0.19286047  0.64131040  0.11411216    -0.43700
N382        N  0.34705688  0.79500611  0.04922246    -0.44200
N383        N  0.46385612  0.65170122  0.03671683    -0.41500
N384        N  0.20357024  0.67554914  0.02848984    -0.43000
H385        H  0.29243618  0.62856895  0.00553436     0.13200
H386        H  0.37392487  0.69136551  0.06096374     0.09700
H387        H  0.25292246  0.64417924  0.07223523     0.10700
H388        H  0.28525453  0.79531430  0.09125057     0.16600
C389        C  0.54555878  0.51876129  0.04479982    -0.01600
C390        C  0.53745380  0.47565082  0.05014130     0.06900
C391        C  0.50792127  0.45060376  0.03938602    -0.07600
C392        C  0.48557006  0.46806801  0.02371011     0.04400
C393        C  0.49255839  0.51180312  0.01860952    -0.14800
C394        C  0.52336469  0.53635518  0.02909188    -0.08200
C395        C  0.55613558  0.45685234  0.06787596     0.05300
C396        C  0.52738279  0.44678638  0.08317165    -0.09300
C397        C  0.54255215  0.42744221  0.10002409     0.00300
C398        C  0.58748631  0.41771620  0.10175018     0.00200
C399        C  0.61649885  0.42865672  0.08656849    -0.12800
C400        C  0.60110046  0.44777306  0.06959990     0.00600
C401        C  0.51142009  0.41917720  0.11549954     0.40000
C402        C  0.63156465  0.45628290  0.05390926     0.36600
C403        C  0.57486283  0.54613452  0.05574527     0.36300
C404        C  0.45600100  0.44004637  0.01321940     0.37100
N405        N  0.48643132  0.41253931  0.12787863    -0.43700
N406        N  0.65592912  0.46309772  0.04131023    -0.44200
N407        N  0.43235399  0.41739383  0.00489389    -0.41500
N408        N  0.59837427  0.56814237  0.06447132    -0.43000
H409        H  0.52916537  0.56990294  0.02544870     0.13200
H410        H  0.50180847  0.41735002  0.04349803     0.09700
H411        H  0.49283204  0.45411801  0.08189711     0.10700
H412        H  0.65100303  0.42110210  0.08772878     0.16600
C413        C  0.78093591  0.95664582  0.52299356    -0.01600
C414        C  0.79365445  0.92690873  0.53717049     0.06900
C415        C  0.83785377  0.91552751  0.53855294    -0.07600
C416        C  0.86977177  0.93462294  0.52656529     0.04400
C417        C  0.85738993  0.96580081  0.51278427    -0.14800
C418        C  0.81269470  0.97581142  0.51100945    -0.08200
C419        C  0.76217246  0.90913738  0.55157761     0.05300
C420        C  0.75430793  0.86456979  0.55201737    -0.09300
C421        C  0.72952432  0.84591553  0.56702890     0.00300
C422        C  0.71205502  0.87221199  0.58185582     0.00200
C423        C  0.71806991  0.91702988  0.58078905    -0.12800
C424        C  0.74330391  0.93557651  0.56596675     0.00600
C425        C  0.72296208  0.79979588  0.56699949     0.40000
C426        C  0.75213888  0.98135186  0.56670673     0.36600
C427        C  0.73558461  0.96818648  0.52057342     0.36300
C428        C  0.91489078  0.92291839  0.52948404     0.37100
N429        N  0.71774095  0.76282366  0.56692266    -0.43700
N430        N  0.75925605  0.01801120  0.56733797    -0.44200
N431        N  0.95093345  0.91324558  0.53195205    -0.41500
N432        N  0.69927795  0.97758565  0.51867061    -0.43000
H433        H  0.80241004  0.99904137  0.50030370     0.13200
H434        H  0.84762102  0.89263621  0.54951394     0.09700
H435        H  0.76870904  0.84423436  0.54092078     0.10700
H436        H  0.70562593  0.93745341  0.59230321     0.16600
C437        C  0.57449847  0.89773019  0.66912404    -0.01600
C438        C  0.56077401  0.93883863  0.66318142     0.06900
C439        C  0.57246773  0.95343495  0.64464246    -0.07600
C440        C  0.59881344  0.92864337  0.63229956     0.04400
C441        C  0.61524209  0.88845269  0.63873735    -0.14800
C442        C  0.60152403  0.87320527  0.65702818    -0.08200
C443        C  0.53731190  0.96821275  0.67670046     0.05300
C444        C  0.55701807  0.97820404  0.69442048    -0.09300
C445        C  0.53602512  0.00405977  0.70812440     0.00300
C446        C  0.49479746  0.02223923  0.70390457     0.00200
C447        C  0.47557216  0.01317278  0.68589242    -0.12800
C448        C  0.49628169  0.98623010  0.67237117     0.00600
C449        C  0.55686549  0.00879309  0.72670297     0.40000
C450        C  0.47418426  0.97651410  0.65445871     0.36600
C451        C  0.56145761  0.88006281  0.68767155     0.36300
C452        C  0.60860078  0.94627508  0.61338322     0.37100
N453        N  0.57443913  0.01206344  0.74142381    -0.43700
N454        N  0.45649783  0.96873902  0.64008606    -0.44200
N455        N  0.61587862  0.96067721  0.59822308    -0.41500
N456        N  0.55103968  0.86608210  0.70256439    -0.43000
H457        H  0.61248375  0.84219208  0.66216074     0.13200
H458        H  0.56194979  0.98499318  0.63997725     0.09700
H459        H  0.58879160  0.96484557  0.69774947     0.10700
H460        H  0.44415316  0.02698827  0.68236947     0.16600
C461        C  0.73499785  0.72475041  0.66387579    -0.01600
C462        C  0.77896145  0.71666874  0.65868055     0.06900
C463        C  0.79753203  0.73821873  0.64276050    -0.07600
C464        C  0.77369350  0.76844455  0.63234830     0.04400
C465        C  0.72922252  0.77637659  0.63729613    -0.14800
C466        C  0.71045129  0.75403607  0.65309508    -0.08200
C467        C  0.80727472  0.68806268  0.67030639     0.05300
C468        C  0.79775203  0.64392466  0.67135151    -0.09300
C469        C  0.82421818  0.61614059  0.68203231     0.00300
C470        C  0.86121262  0.63244759  0.69228143     0.00200
C471        C  0.87097942  0.67683159  0.69051602    -0.12800
C472        C  0.84447506  0.70438391  0.67988451     0.00600
C473        C  0.81203801  0.57103328  0.68236671     0.40000
C474        C  0.85556297  0.74974988  0.67942893     0.36600
C475        C  0.71519780  0.70522078  0.68082748     0.36300
C476        C  0.79719201  0.79293684  0.61773168     0.37100
N477        N  0.80207318  0.53496485  0.68269469    -0.43700
N478        N  0.86443178  0.78607178  0.67904774    -0.44200
N479        N  0.81626259  0.81282025  0.60619233    -0.41500
N480        N  0.69945667  0.68981861  0.69450402    -0.43000
H481        H  0.67673705  0.76005093  0.65730571     0.13200
H482        H  0.83154071  0.73250731  0.63890229     0.09700
H483        H  0.76949667  0.63109246  0.66371330     0.10700
H484        H  0.89934264  0.69129344  0.69734779     0.16600
C485        C  0.35108457  0.69280222  0.90999876    -0.01600
C486        C  0.31540574  0.67314548  0.90047081     0.06900
C487        C  0.29905574  0.63353594  0.90721219    -0.07600
C488        C  0.31794048  0.61298451  0.92304089     0.04400
C489        C  0.35466293  0.63201798  0.93235266    -0.14800
C490        C  0.37028583  0.67225288  0.92572942    -0.08200
C491        C  0.29649303  0.69181282  0.88269226     0.05300
C492        C  0.32402923  0.69830741  0.86655513    -0.09300
C493        C  0.30751526  0.71414294  0.84920769     0.00300
C494        C  0.26245409  0.72311453  0.84772879     0.00200
C495        C  0.23471340  0.71626354  0.86375475    -0.12800
C496        C  0.25141752  0.70104932  0.88124727     0.00600
C497        C  0.33708217  0.71897564  0.83287168     0.40000
C498        C  0.22193235  0.69591156  0.89758193     0.36600
C499        C  0.36863526  0.73406408  0.90392551     0.36300
C500        C  0.29908577  0.57215484  0.92893957     0.37100
N501        N  0.36066693  0.72278665  0.81974752    -0.43700
N502        N  0.19836234  0.69170380  0.91068793    -0.44200
N503        N  0.28367386  0.53949833  0.93357355    -0.41500
N504        N  0.38287038  0.76703193  0.89903763    -0.43000
H505        H  0.39802319  0.68773830  0.93269780     0.13200
H506        H  0.27191521  0.61809130  0.89976534     0.09700
H507        H  0.35847338  0.69028000  0.86743326     0.10700
H508        H  0.20010357  0.72343187  0.86267731     0.16600
C509        C  0.33450113  0.97591995  0.77496861    -0.01600
C510        C  0.34056837  0.93326469  0.76861622     0.06900
C511        C  0.37077852  0.92482467  0.75374725    -0.07600
C512        C  0.39538676  0.95820645  0.74526460     0.04400
C513        C  0.38917824  0.00113615  0.75147543    -0.14800
C514        C  0.35855995  0.00944469  0.76631772    -0.08200
C515        C  0.31661325  0.89671433  0.77763699     0.05300
C516        C  0.28206690  0.87714128  0.76759565    -0.09300
C517        C  0.25884775  0.84204853  0.77550761     0.00300
C518        C  0.27039282  0.82575644  0.79397302     0.00200
C519        C  0.30548665  0.84583453  0.80384758    -0.12800
C520        C  0.32851584  0.88074401  0.79584929     0.00600
C521        C  0.22383403  0.82389033  0.76407246     0.40000
C522        C  0.36491309  0.89912664  0.80640186     0.36600
C523        C  0.30389657  0.98591307  0.79036059     0.36300
C524        C  0.42844877  0.94676612  0.73115647     0.37100
N525        N  0.19589565  0.80995064  0.75462759    -0.43700
N526        N  0.39413166  0.91381747  0.81482170    -0.44200
N527        N  0.45482185  0.93637424  0.71999698    -0.41500
N528        N  0.27949418  0.99386119  0.80275653    -0.43000
H529        H  0.35343984  0.04226297  0.77118262     0.13200
H530        H  0.37588332  0.89183861  0.74910108     0.09700
H531        H  0.27322272  0.88943607  0.75347316     0.10700
H532        H  0.31547981  0.83424330  0.81791616     0.16600
C533        C  0.12082784  0.68893106  0.76447825    -0.01600
C534        C  0.08822579  0.66629735  0.77496923     0.06900
C535        C  0.09042050  0.66472439  0.79520886    -0.07600
C536        C  0.12441473  0.68574427  0.80512857     0.04400
C537        C  0.15667347  0.70964831  0.79465360    -0.14800
C538        C  0.15441922  0.71046951  0.77432188    -0.08200
C539        C  0.05086077  0.64545000  0.76493963     0.05300
C540        C  0.05795674  0.60787996  0.75412689    -0.09300
C541        C  0.02458887  0.58990236  0.74274821     0.00300
C542        C  0.98334069  0.61008959  0.74193816     0.00200
C543        C  0.97599712  0.64687347  0.75339618    -0.12800
C544        C  0.00919245  0.66443499  0.76491042     0.00600
C545        C  0.03470298  0.55215658  0.73143121     0.40000
C546        C  0.00026060  0.70278434  0.77606792     0.36600
C547        C  0.12016912  0.69082626  0.74357945     0.36300
C548        C  0.12463169  0.68254362  0.82599816     0.37100
N549        N  0.04380304  0.52171130  0.72265174    -0.43700
N550        N  0.99314124  0.73344945  0.78506432    -0.44200
N551        N  0.12478653  0.67952737  0.84270862    -0.41500
N552        N  0.11964364  0.69212041  0.72682965    -0.43000
H553        H  0.17939144  0.72744618  0.76599423     0.13200
H554        H  0.06534890  0.64712083  0.80326163     0.09700
H555        H  0.09007676  0.59324551  0.75420368     0.10700
H556        H  0.94423263  0.66220047  0.75321846     0.16600
C557        C  0.00492622  0.16048606  0.54530885    -0.01600
C558        C  0.02637257  0.13767469  0.55997806     0.06900
C559        C  0.03140790  0.09304856  0.55822015    -0.07600
C560        C  0.01540296  0.07087578  0.54204106     0.04400
C561        C  0.99415344  0.09374006  0.52715291    -0.14800
C562        C  0.98904966  0.13849441  0.52908172    -0.08200
C563        C  0.04349842  0.15975936  0.57738254     0.05300
C564        C  0.01381966  0.17569175  0.59118856    -0.09300
C565        C  0.02879698  0.19634666  0.60795571     0.00300
C566        C  0.07430889  0.20112564  0.61105860     0.00200
C567        C  0.10389944  0.18493920  0.59722061    -0.12800
C568        C  0.08886896  0.16462670  0.58041080     0.00600
C569        C  0.99687091  0.21044924  0.62210506     0.40000
C570        C  0.12048054  0.15002318  0.56622664     0.36600
C571        C  0.99963318  0.20656817  0.54645641     0.36300
C572        C  0.01974102  0.02461664  0.54159410     0.37100
N573        N  0.97128339  0.22162003  0.63347291    -0.43700
N574        N  0.14576884  0.13847781  0.55480705    -0.44200
N575        N  0.02322124  0.98754430  0.54135974    -0.41500
N576        N  0.99544078  0.24350452  0.54741492    -0.43000
H577        H  0.97301596  0.15652064  0.51777365     0.13200
H578        H  0.04748801  0.07546821  0.56966422     0.09700
H579        H  0.97888415  0.17154553  0.58892001     0.10700
H580        H  0.13889720  0.18871986  0.59941774     0.16600
C581        C  0.22702211  0.13836977  0.66674240    -0.01600
C582        C  0.25424055  0.16020488  0.67990387     0.06900
C583        C  0.24544309  0.20312963  0.68471154    -0.07600
C584        C  0.20984284  0.22462224  0.67659367     0.04400
C585        C  0.18226754  0.20289291  0.66322968    -0.14800
C586        C  0.19153689  0.15964128  0.65856294    -0.08200
C587        C  0.29223029  0.13889592  0.68881897     0.05300
C588        C  0.33438396  0.14765141  0.68147481    -0.09300
C589        C  0.37133443  0.13049397  0.69038635     0.00300
C590        C  0.36617941  0.10416933  0.70686625     0.00200
C591        C  0.32396269  0.09392026  0.71372393    -0.12800
C592        C  0.28698772  0.11121173  0.70486006     0.00600
C593        C  0.41428381  0.14062740  0.68259365     0.40000
C594        C  0.24414746  0.10180148  0.71294376     0.36600
C595        C  0.23525361  0.09426185  0.66126329     0.36300
C596        C  0.20345292  0.26905969  0.68200598     0.37100
N597        N  0.44876959  0.14851958  0.67635265    -0.43700
N598        N  0.20975555  0.09440954  0.71940515    -0.44200
N599        N  0.19849815  0.30466289  0.68642804    -0.41500
N600        N  0.24190838  0.05892727  0.65687698    -0.43000
H601        H  0.17097030  0.14204434  0.64847862     0.13200
H602        H  0.26659580  0.21990288  0.69485661     0.09700
H603        H  0.33839666  0.16856828  0.66900585     0.10700
H604        H  0.32003099  0.07408471  0.72655694     0.16600
C605        C  0.05507182  0.36443752  0.68737401    -0.01600
C606        C  0.02874795  0.39103118  0.67581700     0.06900
C607        C  0.02521736  0.38205689  0.65598758    -0.07600
C608        C  0.04593375  0.34638925  0.64768326     0.04400
C609        C  0.07070216  0.31831306  0.65940382    -0.14800
C610        C  0.07552948  0.32842872  0.67916293    -0.08200
C611        C  0.00467618  0.42856740  0.68390030     0.05300
C612        C  0.01446529  0.46990250  0.67675672    -0.09300
C613        C  0.99139942  0.50593445  0.68334986     0.00300
C614        C  0.95799963  0.50095160  0.69748691     0.00200
C615        C  0.94829451  0.45969691  0.70469891    -0.12800
C616        C  0.97076604  0.42353123  0.69780908     0.00600
C617        C  0.00394592  0.54787858  0.67605554     0.40000
C618        C  0.95716963  0.38143530  0.70455842     0.36600
C619        C  0.06219274  0.37381018  0.70760633     0.36300
C620        C  0.04198978  0.34048761  0.62700369     0.37100
N621        N  0.01396910  0.58155644  0.67026742    -0.43700
N622        N  0.94626648  0.34762788  0.70988081    -0.44200
N623        N  0.03879569  0.33599802  0.61042263    -0.41500
N624        N  0.06794521  0.38121850  0.72383019    -0.43000
H625        H  0.09484901  0.30783566  0.68835527     0.13200
H626        H  0.00581259  0.40295059  0.64695136     0.09700
H627        H  0.04035941  0.47400293  0.66602382     0.10700
H628        H  0.92239931  0.45563677  0.71543892     0.16600
C629        C  0.51951152  0.43762858  0.92170983    -0.01600
C630        C  0.54347816  0.45952666  0.90714847     0.06900
C631        C  0.54182648  0.50450828  0.90616695    -0.07600
C632        C  0.51670143  0.52794112  0.91945383     0.04400
C633        C  0.49295860  0.50618008  0.93424575    -0.14800
C634        C  0.49448649  0.46100742  0.93510823    -0.08200
C635        C  0.56755470  0.43613681  0.89176885     0.05300
C636        C  0.54328392  0.41402263  0.87773978    -0.09300
C637        C  0.56408928  0.39383101  0.86212945     0.00300
C638        C  0.61042738  0.39549870  0.86040621     0.00200
C639        C  0.63467850  0.41773768  0.87454101    -0.12800
C640        C  0.61363020  0.43780977  0.89020822     0.00600
C641        C  0.53664985  0.37358247  0.84770199     0.40000
C642        C  0.63987795  0.45911577  0.90473079     0.36600
C643        C  0.52067415  0.39129848  0.92329401     0.36300
C644        C  0.51406585  0.57399034  0.91688148     0.37100
N645        N  0.51448404  0.35744435  0.83619251    -0.43700
N646        N  0.66093159  0.47598259  0.91643326    -0.44200
N647        N  0.51177158  0.61084538  0.91472403    -0.41500
N648        N  0.52171082  0.35416609  0.92454978    -0.43000
H649        H  0.47658979  0.44395851  0.94642827     0.13200
H650        H  0.55939523  0.52125301  0.89465080     0.09700
H651        H  0.50776775  0.41337278  0.87879567     0.10700
H652        H  0.67016374  0.41898143  0.87348833     0.16600
C653        C  0.60229129  0.24302075  0.78089100    -0.01600
C654        C  0.56794609  0.21964624  0.78982331     0.06900
C655        C  0.55977452  0.22482207  0.80966027    -0.07600
C656        C  0.58347695  0.25511244  0.82046304     0.04400
C657        C  0.61569302  0.28133141  0.81119663    -0.14800
C658        C  0.62563398  0.27372419  0.79153780    -0.08200
C659        C  0.53906198  0.19086000  0.77852940     0.05300
C660        C  0.54150330  0.14648645  0.78131272    -0.09300
C661        C  0.51564643  0.11811959  0.77046161     0.00300
C662        C  0.48574187  0.13416406  0.75654647     0.00200
C663        C  0.48343378  0.17921840  0.75412123    -0.12800
C664        C  0.50945627  0.20735133  0.76501174     0.00600
C665        C  0.52084905  0.07267973  0.77409765     0.40000
C666        C  0.50537409  0.25319090  0.76204313     0.36600
C667        C  0.61376671  0.23628682  0.76076948     0.36300
C668        C  0.57397845  0.25815897  0.84095388     0.37100
N669        N  0.52467631  0.03638945  0.77737981    -0.43700
N670        N  0.50227515  0.28991423  0.75968490    -0.44200
N671        N  0.56633938  0.26046865  0.85737599    -0.41500
N672        N  0.62297951  0.23073960  0.74466384    -0.43000
H673        H  0.65063962  0.29279037  0.78417617     0.13200
H674        H  0.53404640  0.20583758  0.81660226     0.09700
H675        H  0.56430698  0.13394808  0.79182915     0.10700
H676        H  0.46262903  0.19339581  0.74337123     0.16600
C677        C  0.76239299  0.46571654  0.80210833    -0.01600
C678        C  0.78546410  0.44598434  0.78678327     0.06900
C679        C  0.78136538  0.40145206  0.78403579    -0.07600
C680        C  0.75253875  0.37679179  0.79545659     0.04400
C681        C  0.72700771  0.39692790  0.81014774    -0.14800
C682        C  0.73376716  0.44117129  0.81369301    -0.08200
C683        C  0.81124211  0.47164721  0.77252469     0.05300
C684        C  0.84826667  0.49500994  0.77861805    -0.09300
C685        C  0.87183439  0.52125199  0.76563440     0.00300
C686        C  0.85890544  0.52345476  0.74608768     0.00200
C687        C  0.82209102  0.49974896  0.73999788    -0.12800
C688        C  0.79802446  0.47433257  0.75303438     0.00600
C689        C  0.90694522  0.54779318  0.77310540     0.40000
C690        C  0.75865782  0.45301796  0.74630163     0.36600
C691        C  0.76529192  0.51159486  0.80539656     0.36300
C692        C  0.74963448  0.33122096  0.79131294     0.37100
N693        N  0.93460369  0.56919385  0.77945792    -0.43700
N694        N  0.72695931  0.43615116  0.74096436    -0.44200
N695        N  0.74740320  0.29479522  0.78780580    -0.41500
N696        N  0.76764583  0.54837977  0.80797581    -0.43000
H697        H  0.71494264  0.45735639  0.82487562     0.13200
H698        H  0.79974986  0.38615618  0.77243514     0.09700
H699        H  0.85807876  0.49351799  0.79366458     0.10700
H700        H  0.81174376  0.50159784  0.72502853     0.16600
loop_ 
_geom_bond_atom_site_label_1 
_geom_bond_atom_site_label_2 
_geom_bond_distance 
_geom_bond_site_symmetry_2 
_ccdc_geom_bond_type 
C1            N2   1.354       .  A
C1            N6   1.361       .  A
C1          C638   1.482       .  S
N2            C3   1.353       .  A
C3            N4   1.355       .  A
C3          C657   1.484       .  S
N4            C5   1.357       .  A
C5            N6   1.363       .  A
C5          C681   1.491       .  S
C7            N8   1.355       .  A
C7           N12   1.354       .  A
C7          C566   1.476       .  S
N8            C9   1.358       .  A
C9           N10   1.363       .  A
C9          C609   1.492       .  S
N10          C11   1.362       .  A
C11          N12   1.357       .  A
C11         C585   1.493       .  S
C13          N14   1.354       .  A
C13          N18   1.353       .  A
C13         C494   1.470       .  S
N14          C15   1.358       .  A
C15          N16   1.364       .  A
C15         C537   1.488       .  S
N16          C17   1.361       .  A
C17          N18   1.357       .  A
C17         C518   1.497       .  S
C19          N20   1.354       .  A
C19          N24   1.356       .  A
C19         C422   1.476       .  S
N20          C21   1.355       .  A
C21          N22   1.361       .  A
C21         C465   1.490       .  S
N22          C23   1.364       .  A
C23          N24   1.357       .  A
C23         C441   1.496       .  S
C25          C26   1.548       .  S
C25          C31   1.536       .  S
C25          C29   1.539       .  S
C25         C470   1.542       .  S
C26          H33   1.083       .  S
C26          C27   1.366       .  D
C27          C28   1.537       .  S
C27         C542   1.488       .  S
C28          C32   1.535       .  S
C28          C30   1.538       .  S
C28          H34   1.110       .  S
C29          H35   1.086       .  S
C29          C30   1.368       .  D
C30         C614   1.484       .  S
C31          H36   1.087       .  S
C31          C32   1.362       .  D
C32         C686   1.480       .  S
C37          C38   1.543       .  S
C37          C43   1.532       .  S
C37          C41   1.538       .  S
C37         C662   1.533       .  S
C38          H45   1.083       .  S
C38          C39   1.363       .  D
C39          C40   1.536       .  S
C39         C590   1.475       .  S
C40          C44   1.542       .  S
C40          C42   1.537       .  S
C40          H46   1.110       .  S
C41          H47   1.086       .  S
C41          C42   1.364       .  D
C42         C513   1.484       .  S
C43          H48   1.085       .  S
C43          C44   1.365       .  D
C44         C446   1.490       .  S
O49         Cu57   2.018       .  S
O49          C59   1.279   1_556  A
O50         Cu57   2.016       .  S
O50          C60   1.279       .  A
O51         Cu57   2.001       .  S
O51          C61   1.277   1_556  A
O52         Cu57   1.999       .  S
O52          C62   1.276       .  A
O53         Cu58   2.001       .  S
O53          C62   1.278       .  A
O54         Cu58   2.002       .  S
O54          C61   1.278   1_556  A
O55         Cu58   1.996       .  S
O55          C60   1.276       .  A
O56         Cu58   1.998       .  S
O56          C59   1.276   1_556  A
Cu57        Cu58   2.369       .  S
C59         C369   1.478       .  S
C60         C633   1.480       .  S
C61         C393   1.484       .  S
C62         C489   1.488       .  S
O63         Cu71   2.002       .  S
O63          C73   1.279   1_545  A
O64         Cu71   2.001       .  S
O64          C74   1.278       .  A
O65         Cu71   1.992       .  S
O65          C75   1.275       .  A
O66         Cu71   1.990       .  S
O66          C76   1.276   1_545  A
O67         Cu72   2.016   1_565  S
O67          C76   1.279       .  A
O68         Cu72   2.019   1_455  S
O68          C75   1.279   1_455  A
O69         Cu72   2.003       .  S
O69          C74   1.277       .  A
O70         Cu72   1.998   1_565  S
O70          C73   1.276       .  A
Cu71        Cu72   2.370       .  S
C73         C350   1.486       .  S
C74         C561   1.481       .  S
C75         C326   1.477   1_655  S
C76         C417   1.484       .  S
C77          N78   1.354       .  A
C77          N82   1.355       .  A
C77         C398   1.476       .  S
N78          C79   1.355       .  A
C79          N80   1.362       .  A
C79         C273   1.497       .  S
N80          C81   1.362       .  A
C81          N82   1.359       .  A
C81         C302   1.487       .  S
C83          N84   1.355       .  A
C83          N88   1.356       .  A
C83         C321   1.467       .  S
N84          C85   1.357       .  A
C85          N86   1.358       .  A
C85         C249   1.489       .  S
N86          C87   1.357       .  A
C87          N88   1.357       .  A
C87         C230   1.485       .  S
C89          N90   1.356       .  A
C89          N94   1.361       .  A
C89         C374   1.493       .  S
N90          C91   1.357       .  A
C91          N92   1.358       .  A
C91         C201   1.486       .  S
N92          C93   1.361       .  A
C93          N94   1.361       .  A
C93         C182   1.496       .  S
C95          N96   1.354       .  A
C95         N100   1.355       .  A
C95         C345   1.467       .  S
N96          C97   1.357       .  A
C97          N98   1.357       .  A
C97         C153   1.483       .  S
N98          C99   1.358       .  A
C99         N100   1.356       .  A
C99         C129   1.474       .  S
C101        C102   1.539   1_655  S
C101        C107   1.533       .  S
C101        C105   1.547       .  S
C101        C225   1.535   1_655  S
C102        H109   1.086       .  S
C102        C103   1.367   1_455  D
C103        C104   1.538       .  S
C103        C206   1.486   1_655  S
C104        C108   1.536       .  S
C104        C106   1.530       .  S
C104        H110   1.111       .  S
C105        H111   1.083       .  S
C105        C106   1.362       .  D
C106        C158   1.473       .  S
C107        H112   1.087       .  S
C107        C108   1.362       .  D
C108        C297   1.479       .  S
C113        C114   1.541       .  S
C113        C119   1.534       .  S
C113        C117   1.535       .  S
C113        C134   1.534       .  S
C114        H121   1.082       .  S
C114        C115   1.366       .  D
C115        C116   1.539       .  S
C115        C278   1.489       .  S
C116        C120   1.538       .  S
C116        C118   1.536       .  S
C116        H122   1.110       .  S
C117        H123   1.086       .  S
C117        C118   1.362       .  D
C118        C254   1.471       .  S
C119        H124   1.086   1_545  S
C119        C120   1.366       .  D
C120        C177   1.484   1_545  S
C125        C126   1.407       .  A
C125        C130   1.396       .  A
C125        C139   1.444       .  S
C126        C131   1.474       .  S
C126        C127   1.400       .  A
C127        C128   1.398       .  A
C127        H146   1.085   1_565  S
C128        C129   1.414       .  A
C128        C140   1.445       .  S
C129        C130   1.404       .  A
C130        H145   1.085       .  S
C131        C132   1.397       .  A
C131        C136   1.403   1_565  A
C132        C133   1.398       .  A
C132        H147   1.085       .  S
C133        C134   1.423   1_565  A
C133        C137   1.444       .  S
C134        C135   1.414       .  A
C135        C136   1.396       .  A
C135        H148   1.077       .  S
C136        C138   1.445       .  S
C137        N141   1.157       .  T
C138        N142   1.157       .  T
C139        N144   1.157       .  T
C140        N143   1.157   1_565  T
C149        C150   1.408       .  A
C149        C154   1.394       .  A
C149        C163   1.445       .  S
C150        C155   1.478       .  S
C150        C151   1.401       .  A
C151        C152   1.400       .  A
C151        H170   1.085       .  S
C152        C153   1.418       .  A
C152        C164   1.444       .  S
C153        C154   1.406       .  A
C154        H169   1.085       .  S
C155        C156   1.402       .  A
C155        C160   1.411       .  A
C156        C157   1.398       .  A
C156        H171   1.085       .  S
C157        C158   1.408       .  A
C157        C161   1.442       .  S
C158        C159   1.403       .  A
C159        C160   1.396       .  A
C159        H172   1.085       .  S
C160        C162   1.445       .  S
C161        N165   1.157       .  T
C162        N166   1.157       .  T
C163        N168   1.157       .  T
C164        N167   1.158       .  T
C173        C174   1.411       .  A
C173        C178   1.402   1_565  A
C173        C187   1.443       .  S
C174        C179   1.486       .  S
C174        C175   1.402       .  A
C175        C176   1.398       .  A
C175        H194   1.085       .  S
C176        C177   1.413       .  A
C176        C188   1.443       .  S
C177        C178   1.404   1_565  A
C178        H193   1.085       .  S
C179        C180   1.401       .  A
C179        C184   1.409       .  A
C180        C181   1.401       .  A
C180        H195   1.085       .  S
C181        C182   1.421       .  A
C181        C185   1.444       .  S
C182        C183   1.410       .  A
C183        C184   1.400       .  A
C183        H196   1.084       .  S
C184        C186   1.444       .  S
C185        N189   1.157       .  T
C186        N190   1.157       .  T
C187        N192   1.157   1_565  T
C188        N191   1.157       .  T
C197        C198   1.406       .  A
C197        C202   1.398       .  A
C197        C211   1.444       .  S
C198        C203   1.481       .  S
C198        C199   1.402       .  A
C199        C200   1.402       .  A
C199        H218   1.085       .  S
C200        C201   1.418       .  A
C200        C212   1.444       .  S
C201        C202   1.407       .  A
C202        H217   1.085       .  S
C203        C204   1.402       .  A
C203        C208   1.407       .  A
C204        C205   1.400       .  A
C204        H219   1.085       .  S
C205        C206   1.412       .  A
C205        C209   1.443       .  S
C206        C207   1.407   1_455  A
C207        C208   1.400   1_655  A
C207        H220   1.083       .  S
C208        C210   1.443       .  S
C209        N213   1.157       .  T
C210        N214   1.157   1_455  T
C211        N216   1.157       .  T
C212        N215   1.158       .  T
C221        C222   1.406       .  A
C221        C226   1.396       .  A
C221        C235   1.445       .  S
C222        C227   1.480       .  S
C222        C223   1.399       .  A
C223        C224   1.398       .  A
C223        H242   1.086       .  S
C224        C225   1.423       .  A
C224        C236   1.445       .  S
C225        C226   1.413       .  A
C226        H241   1.081   1_455  S
C227        C228   1.400       .  A
C227        C232   1.408       .  A
C228        C229   1.397       .  A
C228        H243   1.085       .  S
C229        C230   1.418       .  A
C229        C233   1.443       .  S
C230        C231   1.408       .  A
C231        C232   1.398       .  A
C231        H244   1.084       .  S
C232        C234   1.444       .  S
C233        N237   1.157       .  T
C234        N238   1.157       .  T
C235        N240   1.157       .  T
C236        N239   1.157       .  T
C245        C246   1.404       .  A
C245        C250   1.396       .  A
C245        C259   1.445       .  S
C246        C251   1.472       .  S
C246        C247   1.398       .  A
C247        C248   1.399       .  A
C247        H266   1.085       .  S
C248        C249   1.420       .  A
C248        C260   1.444       .  S
C249        C250   1.411       .  A
C250        H265   1.084       .  S
C251        C252   1.399       .  A
C251        C256   1.409       .  A
C252        C253   1.395       .  A
C252        H267   1.085       .  S
C253        C254   1.410       .  A
C253        C257   1.444       .  S
C254        C255   1.402       .  A
C255        C256   1.399       .  A
C255        H268   1.085       .  S
C256        C258   1.444       .  S
C257        N261   1.157       .  T
C258        N262   1.157       .  T
C259        N264   1.157       .  T
C260        N263   1.157       .  T
C269        C270   1.408       .  A
C269        C274   1.400       .  A
C269        C283   1.445       .  S
C270        C275   1.479       .  S
C270        C271   1.395       .  A
C271        C272   1.400       .  A
C271        H290   1.085       .  S
C272        C273   1.425       .  A
C272        C284   1.444       .  S
C273        C274   1.409       .  A
C274        H289   1.084       .  S
C275        C276   1.401       .  A
C275        C280   1.406       .  A
C276        C277   1.403       .  A
C276        H291   1.085       .  S
C277        C278   1.415       .  A
C277        C281   1.441       .  S
C278        C279   1.406       .  A
C279        C280   1.396       .  A
C279        H292   1.085       .  S
C280        C282   1.444       .  S
C281        N285   1.157       .  T
C282        N286   1.157       .  T
C283        N288   1.157       .  T
C284        N287   1.157       .  T
C293        C294   1.413       .  A
C293        C298   1.402       .  A
C293        C307   1.443       .  S
C294        C299   1.486       .  S
C294        C295   1.403       .  A
C295        C296   1.397       .  A
C295        H314   1.085       .  S
C296        C297   1.412       .  A
C296        C308   1.445       .  S
C297        C298   1.402       .  A
C298        H313   1.085       .  S
C299        C300   1.404       .  A
C299        C304   1.410       .  A
C300        C301   1.401       .  A
C300        H315   1.085       .  S
C301        C302   1.415       .  A
C301        C305   1.444       .  S
C302        C303   1.408       .  A
C303        C304   1.399       .  A
C303        H316   1.084       .  S
C304        C306   1.444       .  S
C305        N309   1.157       .  T
C306        N310   1.157       .  T
C307        N312   1.157       .  T
C308        N311   1.157       .  T
C317        C318   1.410       .  A
C317        C322   1.403       .  A
C317        C331   1.443       .  S
C318        C323   1.479       .  S
C318        C319   1.401       .  A
C319        C320   1.395       .  A
C319        H338   1.085       .  S
C320        C321   1.409       .  A
C320        C332   1.445       .  S
C321        C322   1.402       .  A
C322        H337   1.085       .  S
C323        C324   1.401       .  A
C323        C328   1.409       .  A
C324        C325   1.400       .  A
C324        H339   1.085       .  S
C325        C326   1.415       .  A
C325        C329   1.445       .  S
C326        C327   1.403       .  A
C327        C328   1.399       .  A
C327        H340   1.085       .  S
C328        C330   1.444       .  S
C329        N333   1.157   1_455  T
C330        N334   1.157       .  T
C331        N336   1.157       .  T
C332        N335   1.157       .  T
C341        C342   1.410       .  A
C341        C346   1.396       .  A
C341        C355   1.444       .  S
C342        C347   1.477       .  S
C342        C343   1.402       .  A
C343        C344   1.398       .  A
C343        H362   1.085       .  S
C344        C345   1.410       .  A
C344        C356   1.444       .  S
C345        C346   1.402       .  A
C346        H361   1.085       .  S
C347        C348   1.399       .  A
C347        C352   1.408       .  A
C348        C349   1.400       .  A
C348        H363   1.085       .  S
C349        C350   1.420       .  A
C349        C353   1.444       .  S
C350        C351   1.407       .  A
C351        C352   1.395       .  A
C351        H364   1.084   1_565  S
C352        C354   1.445   1_565  S
C353        N357   1.157       .  T
C354        N358   1.157       .  T
C355        N360   1.157       .  T
C356        N359   1.157       .  T
C365        C366   1.411       .  A
C365        C370   1.403       .  A
C365        C379   1.444       .  S
C366        C371   1.486       .  S
C366        C367   1.402       .  A
C367        C368   1.398       .  A
C367        H386   1.085       .  S
C368        C369   1.413       .  A
C368        C380   1.445       .  S
C369        C370   1.405       .  A
C370        H385   1.085       .  S
C371        C372   1.401       .  A
C371        C376   1.409       .  A
C372        C373   1.401       .  A
C372        H387   1.085       .  S
C373        C374   1.421       .  A
C373        C377   1.445       .  S
C374        C375   1.408       .  A
C375        C376   1.401       .  A
C375        H388   1.084       .  S
C376        C378   1.444       .  S
C377        N381   1.158       .  T
C378        N382   1.157       .  T
C379        N384   1.157       .  T
C380        N383   1.157       .  T
C389        C390   1.408       .  A
C389        C394   1.399       .  A
C389        C403   1.444       .  S
C390        C395   1.479       .  S
C390        C391   1.400       .  A
C391        C392   1.398       .  A
C391        H410   1.085       .  S
C392        C393   1.417       .  A
C392        C404   1.444       .  S
C393        C394   1.408       .  A
C394        H409   1.084       .  S
C395        C396   1.400       .  A
C395        C400   1.410       .  A
C396        C397   1.395       .  A
C396        H411   1.085       .  S
C397        C398   1.413       .  A
C397        C401   1.445       .  S
C398        C399   1.405       .  A
C399        C400   1.401       .  A
C399        H412   1.085       .  S
C400        C402   1.444       .  S
C401        N405   1.157       .  T
C402        N406   1.157       .  T
C403        N408   1.157       .  T
C404        N407   1.157       .  T
C413        C414   1.407       .  A
C413        C418   1.397       .  A
C413        C427   1.444       .  S
C414        C419   1.480       .  S
C414        C415   1.402       .  A
C415        C416   1.400       .  A
C415        H434   1.085       .  S
C416        C417   1.415       .  A
C416        C428   1.444       .  S
C417        C418   1.408       .  A
C418        H433   1.085       .  S
C419        C420   1.402       .  A
C419        C424   1.410       .  A
C420        C421   1.400       .  A
C420        H435   1.085       .  S
C421        C422   1.412       .  A
C421        C425   1.444       .  S
C422        C423   1.404       .  A
C423        C424   1.396       .  A
C423        H436   1.084       .  S
C424        C426   1.445       .  S
C425        N429   1.157       .  T
C426        N430   1.157   1_565  T
C427        N432   1.157       .  T
C428        N431   1.157       .  T
C437        C438   1.411       .  A
C437        C442   1.399       .  A
C437        C451   1.445       .  S
C438        C443   1.488       .  S
C438        C439   1.400       .  A
C439        C440   1.401       .  A
C439        H458   1.085       .  S
C440        C441   1.424       .  A
C440        C452   1.444       .  S
C441        C442   1.408       .  A
C442        H457   1.084       .  S
C443        C444   1.400       .  A
C443        C448   1.411       .  A
C444        C445   1.395   1_565  A
C444        H459   1.085       .  S
C445        C446   1.417       .  A
C445        C449   1.443       .  S
C446        C447   1.406       .  A
C447        C448   1.403   1_545  A
C447        H460   1.084       .  S
C448        C450   1.443       .  S
C449        N453   1.157       .  T
C450        N454   1.157       .  T
C451        N456   1.157       .  T
C452        N455   1.158       .  T
C461        C462   1.410       .  A
C461        C466   1.403       .  A
C461        C475   1.444       .  S
C462        C467   1.487       .  S
C462        C463   1.400       .  A
C463        C464   1.398       .  A
C463        H482   1.085       .  S
C464        C465   1.420       .  A
C464        C476   1.445       .  S
C465        C466   1.408       .  A
C466        H481   1.084       .  S
C467        C468   1.400       .  A
C467        C472   1.407       .  A
C468        C469   1.403       .  A
C468        H483   1.086       .  S
C469        C470   1.425       .  A
C469        C473   1.445       .  S
C470        C471   1.412       .  A
C471        C472   1.397       .  A
C471        H484   1.082       .  S
C472        C474   1.445       .  S
C473        N477   1.157       .  T
C474        N478   1.157       .  T
C475        N480   1.157       .  T
C476        N479   1.158       .  T
C485        C486   1.409       .  A
C485        C490   1.397       .  A
C485        C499   1.445       .  S
C486        C491   1.483       .  S
C486        C487   1.401       .  A
C487        C488   1.398       .  A
C487        H506   1.085       .  S
C488        C489   1.419       .  A
C488        C500   1.444       .  S
C489        C490   1.408       .  A
C490        H505   1.084       .  S
C491        C492   1.403       .  A
C491        C496   1.412       .  A
C492        C493   1.396       .  A
C492        H507   1.085       .  S
C493        C494   1.410       .  A
C493        C497   1.445       .  S
C494        C495   1.402       .  A
C495        C496   1.400       .  A
C495        H508   1.085       .  S
C496        C498   1.444       .  S
C497        N501   1.157       .  T
C498        N502   1.157       .  T
C499        N504   1.157       .  T
C500        N503   1.157       .  T
C509        C510   1.408       .  A
C509        C514   1.399   1_565  A
C509        C523   1.444       .  S
C510        C515   1.479       .  S
C510        C511   1.400       .  A
C511        C512   1.399       .  A
C511        H530   1.085       .  S
C512        C513   1.414   1_565  A
C512        C524   1.443       .  S
C513        C514   1.406       .  A
C514        H529   1.085       .  S
C515        C516   1.399       .  A
C515        C520   1.405       .  A
C516        C517   1.402       .  A
C516        H531   1.085       .  S
C517        C518   1.421       .  A
C517        C521   1.443       .  S
C518        C519   1.413       .  A
C519        C520   1.397       .  A
C519        H532   1.084       .  S
C520        C522   1.445       .  S
C521        N525   1.157       .  T
C522        N526   1.157       .  T
C523        N528   1.157       .  T
C524        N527   1.157       .  T
C533        C534   1.408       .  A
C533        C538   1.398       .  A
C533        C547   1.444       .  S
C534        C539   1.481       .  S
C534        C535   1.400       .  A
C535        C536   1.402       .  A
C535        H554   1.085       .  S
C536        C537   1.420       .  A
C536        C548   1.444       .  S
C537        C538   1.406       .  A
C538        H553   1.083       .  S
C539        C540   1.401       .  A
C539        C544   1.407       .  A
C540        C541   1.402       .  A
C540        H555   1.085       .  S
C541        C542   1.414   1_455  A
C541        C545   1.442       .  S
C542        C543   1.407       .  A
C543        C544   1.398   1_655  A
C543        H556   1.085       .  S
C544        C546   1.444       .  S
C545        N549   1.157       .  T
C546        N550   1.157   1_455  T
C547        N552   1.157       .  T
C548        N551   1.157       .  T
C557        C558   1.407       .  A
C557        C562   1.398   1_455  A
C557        C571   1.444   1_455  S
C558        C563   1.478       .  S
C558        C559   1.401       .  A
C559        C560   1.399       .  A
C559        H578   1.085       .  S
C560        C561   1.416   1_455  A
C560        C572   1.444       .  S
C561        C562   1.406       .  A
C562        H577   1.085       .  S
C563        C564   1.402       .  A
C563        C568   1.408       .  A
C564        C565   1.400       .  A
C564        H579   1.085   1_455  S
C565        C566   1.413       .  A
C565        C569   1.444   1_455  S
C566        C567   1.405       .  A
C567        C568   1.398       .  A
C567        H580   1.085       .  S
C568        C570   1.444       .  S
C569        N573   1.157       .  T
C570        N574   1.157       .  T
C571        N576   1.157       .  T
C572        N575   1.157   1_545  T
C581        C582   1.404       .  A
C581        C586   1.398       .  A
C581        C595   1.444       .  S
C582        C587   1.480       .  S
C582        C583   1.401       .  A
C583        C584   1.403       .  A
C583        H602   1.085       .  S
C584        C585   1.419       .  A
C584        C596   1.444       .  S
C585        C586   1.412       .  A
C586        H601   1.084       .  S
C587        C588   1.402       .  A
C587        C592   1.410       .  A
C588        C589   1.400       .  A
C588        H603   1.085       .  S
C589        C590   1.409       .  A
C589        C593   1.444       .  S
C590        C591   1.402       .  A
C591        C592   1.401       .  A
C591        H604   1.085       .  S
C592        C594   1.444       .  S
C593        N597   1.157       .  T
C594        N598   1.157       .  T
C595        N600   1.157       .  T
C596        N599   1.157       .  T
C605        C606   1.411       .  A
C605        C610   1.403       .  A
C605        C619   1.444       .  S
C606        C611   1.489       .  S
C606        C607   1.401       .  A
C607        C608   1.400       .  A
C607        H626   1.085       .  S
C608        C609   1.419       .  A
C608        C620   1.445       .  S
C609        C610   1.408       .  A
C610        H625   1.084       .  S
C611        C612   1.404       .  A
C611        C616   1.413   1_455  A
C612        C613   1.401   1_455  A
C612        H627   1.085       .  S
C613        C614   1.412       .  A
C613        C617   1.444   1_655  S
C614        C615   1.403       .  A
C615        C616   1.402       .  A
C615        H628   1.085       .  S
C616        C618   1.444       .  S
C617        N621   1.157       .  T
C618        N622   1.157       .  T
C619        N624   1.157       .  T
C620        N623   1.157       .  T
C629        C630   1.409       .  A
C629        C634   1.401       .  A
C629        C643   1.444       .  S
C630        C635   1.479       .  S
C630        C631   1.400       .  A
C631        C632   1.398       .  A
C631        H650   1.085       .  S
C632        C633   1.415       .  A
C632        C644   1.444       .  S
C633        C634   1.405       .  A
C634        H649   1.085       .  S
C635        C636   1.399       .  A
C635        C640   1.409       .  A
C636        C637   1.397       .  A
C636        H651   1.085       .  S
C637        C638   1.418       .  A
C637        C641   1.445       .  S
C638        C639   1.405       .  A
C639        C640   1.401       .  A
C639        H652   1.085       .  S
C640        C642   1.443       .  S
C641        N645   1.157       .  T
C642        N646   1.157       .  T
C643        N648   1.157       .  T
C644        N647   1.157       .  T
C653        C654   1.406       .  A
C653        C658   1.395       .  A
C653        C667   1.445       .  S
C654        C659   1.475       .  S
C654        C655   1.399       .  A
C655        C656   1.398       .  A
C655        H674   1.085       .  S
C656        C657   1.418       .  A
C656        C668   1.444       .  S
C657        C658   1.408       .  A
C658        H673   1.084       .  S
C659        C660   1.395       .  A
C659        C664   1.406       .  A
C660        C661   1.397       .  A
C660        H675   1.086       .  S
C661        C662   1.425       .  A
C661        C665   1.444       .  S
C662        C663   1.412       .  A
C663        C664   1.397       .  A
C663        H676   1.079       .  S
C664        C666   1.445       .  S
C665        N669   1.157       .  T
C666        N670   1.157       .  T
C667        N672   1.157       .  T
C668        N671   1.157       .  T
C677        C678   1.408       .  A
C677        C682   1.399       .  A
C677        C691   1.444       .  S
C678        C683   1.482       .  S
C678        C679   1.400       .  A
C679        C680   1.399       .  A
C679        H698   1.085       .  S
C680        C681   1.421       .  A
C680        C692   1.445       .  S
C681        C682   1.408       .  A
C682        H697   1.084       .  S
C683        C684   1.403       .  A
C683        C688   1.411       .  A
C684        C685   1.401       .  A
C684        H699   1.085       .  S
C685        C686   1.411       .  A
C685        C689   1.442       .  S
C686        C687   1.403       .  A
C687        C688   1.396       .  A
C687        H700   1.085       .  S
C688        C690   1.445       .  S
C689        N693   1.157       .  T
C690        N694   1.157       .  T
C691        N696   1.157       .  T
C692        N695   1.158       .  T
