geometry optimzed in LAMMPS
_audit_creation_date              2020-11-30 
_audit_creation_method            'lammps2cif' 
_symmetry_space_group_name_H-M    'P1' 
_symmetry_Int_Tables_number       1 
_symmetry_cell_setting            triclinic 
loop_ 
_symmetry_equiv_pos_as_xyz 
  x,y,z 
_cell_length_a                    30.24748803 
_cell_length_b                    31.775730351898698 
_cell_length_c                    43.63045401316419 
_cell_angle_alpha                 91.28278632483783 
_cell_angle_beta                  88.68415017921724 
_cell_angle_gamma                 90.61231911900857 
loop_ 
_atom_site_label 
_atom_site_type_symbol 
_atom_site_fract_x 
_atom_site_fract_y 
_atom_site_fract_z 
_atom_site_charge 
C1          C  0.19200070  0.16615127  0.84977154     0.79900
N2          N  0.16235378  0.13980689  0.83582706    -0.78500
C3          C  0.15591560  0.14193368  0.80522650     0.82300
N4          N  0.17884222  0.17058253  0.78866618    -0.78400
C5          C  0.20870764  0.19662700  0.80183026     0.82400
N6          N  0.21516686  0.19475650  0.83251155    -0.80100
C7          C  0.99972951  0.13998269  0.68556356     0.79900
N8          N  0.97489418  0.17307849  0.69650383    -0.78500
C9          C  0.97646844  0.18550004  0.72668324     0.82300
N10         N  0.00421887  0.16513465  0.74545233    -0.78400
C11         C  0.02890997  0.13203943  0.73470957     0.82400
N12         N  0.02629209  0.11971275  0.70493886    -0.80100
C13         C  0.02817298  0.30780756  0.84174927     0.79900
N14         N  0.05209198  0.00590891  0.83001937    -0.78500
C15         C  0.04640970  0.01851903  0.80083389     0.82300
N16         N  0.34943221  0.99834633  0.78328398    -0.78400
C17         C  0.32489745  0.29947698  0.79468141     0.82400
N18         N  0.33167200  0.28686374  0.82381955    -0.80100
C19         C  0.17070920  0.33525382  0.67807638     0.79900
N20         N  0.19676460  0.30770452  0.69285155    -0.78500
C21         C  0.19761598  0.30736325  0.72387303     0.82300
N22         N  0.17197494  0.33507931  0.74022487    -0.78400
C23         C  0.14493887  0.36209941  0.72603392     0.82400
N24         N  0.14489409  0.36262361  0.69487538    -0.80100
C25         C  0.22841448  0.27876716  0.74075593     0.86100
C26         C  0.26342447  0.30387185  0.75839104    -0.54100
C27         C  0.28971403  0.28003314  0.77598262     0.09000
C28         C  0.27875665  0.23252565  0.77419630     0.20000
C29         C  0.25513185  0.24529719  0.72192460    -0.54800
C30         C  0.28170209  0.22074228  0.73941509     0.09200
C31         C  0.20319608  0.25341835  0.76497485    -0.54400
C32         C  0.22912270  0.22934687  0.78258821     0.09700
H33         H  0.26671634  0.33790977  0.75734520     0.14200
H34         H  0.29978109  0.21309059  0.78874818     0.00000
H35         H  0.25289441  0.24118771  0.69724016     0.14500
H36         H  0.16730320  0.25299118  0.76706251     0.14300
C37         C  0.12472997  0.11325664  0.78830860     0.86100
C38         C  0.08906276  0.13751952  0.77203732    -0.54100
C39         C  0.06271890  0.11301681  0.75396203     0.09000
C40         C  0.07457835  0.06555947  0.75397474     0.20000
C41         C  0.09928365  0.07942415  0.80632359    -0.54800
C42         C  0.07275350  0.05420096  0.78838790     0.09200
C43         C  0.14993242  0.08869765  0.76312190    -0.54400
C44         C  0.12438571  0.06335969  0.74524568     0.09700
H45         H  0.08583000  0.17152288  0.77394477     0.14200
H46         H  0.05346448  0.04529133  0.73913702     0.00000
H47         H  0.10227240  0.07540031  0.83075048     0.14500
H48         H  0.18583863  0.08906938  0.76099526     0.14300
O49         O  0.09174507  0.28338925  0.98251122    -0.72100
O50         O  0.14381486  0.23268412  0.05132104    -0.72400
O51         O  0.15971202  0.23283386  0.98945463    -0.72200
O52         O  0.07636859  0.28393604  0.04419110    -0.72200
O53         O  0.03374564  0.22877215  0.04151841    -0.72200
O54         O  0.11476158  0.17989923  0.98303905    -0.72200
O55         O  0.10220501  0.17728751  0.04493670    -0.72200
O56         O  0.04621411  0.23039262  0.97900184    -0.72300
V57         V  0.11704652  0.25713541  0.01685990     1.35200
V58         V  0.07498978  0.20515195  0.01218254     1.35200
C59         C  0.06159677  0.26420111  0.96796500     0.77100
C60         C  0.13069080  0.19701266  0.06058621     0.77200
C61         C  0.14985922  0.19928773  0.97502838     0.77000
C62         C  0.04275572  0.26405079  0.05410810     0.77000
O63         O  0.23524263  0.04991314  0.47708666    -0.72100
O64         O  0.29224384  0.10686350  0.54294476    -0.72400
O65         O  0.30427641  0.10095793  0.48100724    -0.72200
O66         O  0.22270661  0.05619977  0.53888074    -0.72200
O67         O  0.26570651  0.00313178  0.54545299    -0.72200
O68         O  0.34567834  0.04606165  0.48436333    -0.72200
O69         O  0.33582373  0.05370614  0.54736918    -0.72200
O70         O  0.27605097  0.99515373  0.48305263    -0.72300
V71         V  0.26451699  0.07738682  0.51007085     1.35200
V72         V  0.30516142  0.02556532  0.51502280     1.35200
C73         C  0.24770157  0.01388388  0.46760210     0.77100
C74         C  0.32161606  0.08869861  0.55779875     0.77200
C75         C  0.33633240  0.07941253  0.47057784     0.77000
C76         C  0.23163277  0.02375671  0.55365813     0.77000
C77         C  0.17348045  0.14175381  0.18249114     0.79900
N78         N  0.15414801  0.10611267  0.19405670    -0.78500
C79         C  0.16808739  0.09059943  0.22095809     0.82300
N80         N  0.20128338  0.11043134  0.23582832    -0.78400
C81         C  0.22030996  0.14591909  0.22505625     0.82400
N82         N  0.20636089  0.16177580  0.19832672    -0.80100
C83         C  0.03912730  0.10997071  0.34256662     0.79900
N84         N  0.01234123  0.13626234  0.32754422    -0.78500
C85         C  0.01278072  0.13644293  0.29624596     0.82300
N86         N  0.03994387  0.10994102  0.27989358    -0.78200
C87         C  0.06667738  0.08367413  0.29467491     0.82400
N88         N  0.06588879  0.08396757  0.32581809    -0.80100
C89         C  0.01079469  0.29503030  0.18027251     0.79900
N90         N  0.04183967  0.98495350  0.19482430    -0.78500
C91         C  0.05263074  0.97740288  0.22431151     0.82300
N92         N  0.36516897  0.94585114  0.23940207    -0.78400
C93         C  0.33313228  0.25618053  0.22551818     0.82400
N94         N  0.32261696  0.26392659  0.19618932    -0.80100
C95         C  0.21388924  0.29486205  0.34120130     0.79900
N96         N  0.18667028  0.31681798  0.32346645    -0.78500
C97         C  0.18242167  0.30741714  0.29314025     0.82300
N98         N  0.20611512  0.27546892  0.28024406    -0.78400
C99         C  0.23309031  0.25254673  0.29767417     0.82400
N100        N  0.23695509  0.26231814  0.32813178    -0.80100
C101        C  0.31597564  0.16471853  0.27941676     0.86100
C102        C  0.34120011  0.19453016  0.25810036    -0.54100
C103        C  0.31463267  0.21976392  0.24172894     0.09000
C104        C  0.26493585  0.21242647  0.24788876     0.20000
C105        C  0.28645637  0.19366385  0.29944356    -0.54800
C106        C  0.26001833  0.21899125  0.28304807     0.09200
C107        C  0.28405379  0.14020428  0.25894932    -0.54400
C108        C  0.25709398  0.16487208  0.24242412     0.09700
H109        H  0.04384492  0.19704298  0.25708580     0.14200
H110        H  0.24336639  0.23279597  0.23441725     0.00000
H111        H  0.28742981  0.19520499  0.32423816     0.14500
H112        H  0.28207705  0.10601793  0.25832199     0.14300
C113        C  0.15204252  0.99935709  0.27436616     0.86100
C114        C  0.17623848  0.02707119  0.25119412    -0.54100
C115        C  0.14918808  0.05217855  0.23484988     0.09000
C116        C  0.09940609  0.04570203  0.24273083     0.20000
C117        C  0.12371087  0.02955128  0.29382723    -0.54800
C118        C  0.09619826  0.05391293  0.27785851     0.09200
C119        C  0.11888201  0.97375723  0.25575180    -0.54400
C120        C  0.09108719  0.99760287  0.23907839     0.09700
H121        H  0.21210111  0.02968817  0.25006650     0.14200
H122        H  0.07688590  0.06532058  0.22942021     0.00000
H123        H  0.12457797  0.03100177  0.31861838     0.14500
H124        H  0.11637447  0.27326517  0.25662404     0.14300
C125        C  0.34662247  0.12974752  0.42818230    -0.12600
C126        C  0.35704627  0.09063163  0.44049262     0.04400
C127        C  0.04469614  0.06043547  0.42078951    -0.07900
C128        C  0.05086768  0.06835047  0.38949728    -0.08700
C129        C  0.03694164  0.10610880  0.37664921    -0.03200
C130        C  0.35240134  0.13753054  0.39683437     0.03600
N131        N  0.33809122  0.17688907  0.38571930     0.66100
H132        H  0.33093611  0.15378811  0.44264377     0.15000
H133        H  0.06443871  0.04337387  0.37486977     0.14700
N134        N  0.05590996  0.01983491  0.43149370     0.73800
O135        O  0.29737559  0.18208613  0.38168709    -0.39600
O136        O  0.36308165  0.20874684  0.38837483    -0.39600
O137        O  0.02999925  0.98917053  0.42654105    -0.40300
O138        O  0.09548825  0.01271475  0.43810949    -0.40400
C139        C  0.21503156  0.02570255  0.41701942    -0.12600
C140        C  0.23342532  0.99721367  0.43715524     0.04400
C141        C  0.24244016  0.28819567  0.42559400    -0.07900
C142        C  0.23569174  0.27766361  0.39456948    -0.08700
C143        C  0.21872949  0.30688629  0.37429226    -0.03200
C144        C  0.20871537  0.01525457  0.38612041     0.03600
N145        N  0.19376430  0.04759936  0.36673849     0.66100
H146        H  0.20773797  0.05761592  0.42477194     0.15000
H147        H  0.24416912  0.24633945  0.38625620     0.14700
N148        N  0.26039634  0.25715360  0.44481583     0.73800
O149        O  0.15430913  0.05977915  0.36965909    -0.39600
O150        O  0.22196416  0.07131614  0.35389265    -0.39600
O151        O  0.23512460  0.22902677  0.45559283    -0.40300
O152        O  0.30163803  0.25155329  0.44448509    -0.40400
C153        C  0.03575518  0.31703513  0.09641705    -0.12600
C154        C  0.01964761  0.27967648  0.08260651     0.04400
C155        C  0.99020616  0.25424005  0.09992418    -0.07900
C156        C  0.98382860  0.26275067  0.13136481    -0.08700
C157        C  0.00640078  0.29611621  0.14626167    -0.03200
C158        C  0.02973542  0.32538385  0.12785513     0.03600
N159        N  0.04248521  0.03096559  0.14060853     0.66100
H160        H  0.05679384  0.33830841  0.08336895     0.15000
H161        H  0.96374442  0.24077997  0.14447205     0.14700
N162        N  0.96883552  0.21805416  0.08675110     0.73800
O163        O  0.08329476  0.03421055  0.14568994    -0.39600
O164        O  0.02010861  0.06399546  0.13833984    -0.39600
O165        O  0.98332148  0.18195771  0.09224108    -0.40300
O166        O  0.92973022  0.22142713  0.07769759    -0.40400
C167        C  0.15119267  0.12626406  0.12858327    -0.12600
C168        C  0.16202953  0.15625455  0.15145986     0.04400
C169        C  0.16420862  0.19911651  0.14363374    -0.07900
C170        C  0.15612882  0.21103411  0.11354888    -0.08700
C171        C  0.14482899  0.18121059  0.09069381    -0.03200
C172        C  0.14245627  0.13826565  0.09852070     0.03600
N173        N  0.13251384  0.10615454  0.07619893     0.66100
H174        H  0.15027863  0.09325193  0.13385067     0.15000
H175        H  0.15674560  0.24415266  0.10847004     0.14700
N176        N  0.17159780  0.23140313  0.16632441     0.73800
O177        O  0.16393224  0.08720155  0.06251199    -0.39600
O178        O  0.09439793  0.08961856  0.07628913    -0.39600
O179        O  0.20827407  0.25068094  0.16653468    -0.40300
O180        O  0.13881163  0.24731271  0.18055506    -0.40400
C181        C  0.18268709  0.04699480  0.59717088    -0.12600
C182        C  0.20607972  0.01412252  0.58221896     0.04400
C183        C  0.21080987  0.30737572  0.59794009    -0.07900
C184        C  0.19522865  0.30377857  0.62816141    -0.08700
C185        C  0.17524024  0.33771929  0.64407790    -0.03200
C186        C  0.16908275  0.04438057  0.62803436     0.03600
N187        N  0.15206759  0.08145398  0.64304809     0.66100
H188        H  0.17869217  0.07675372  0.58586930     0.15000
H189        H  0.20174460  0.27481125  0.63989386     0.14700
N190        N  0.23552058  0.27337937  0.58465786     0.73800
O191        O  0.17863039  0.10651433  0.65613919    -0.39600
O192        O  0.11463106  0.09469510  0.63579465    -0.39600
O193        O  0.27472013  0.26827676  0.59303670    -0.40300
O194        O  0.21497883  0.24285392  0.57240971    -0.40400
C195        C  0.04757962  0.32795304  0.89554830    -0.12600
C196        C  0.03411392  0.29649299  0.87442854     0.04400
C197        C  0.02699203  0.25526625  0.88511657    -0.07900
C198        C  0.03347094  0.24649523  0.91606655    -0.08700
C199        C  0.04820173  0.27764924  0.93699718    -0.03200
C200        C  0.05497291  0.31897205  0.92637459     0.03600
N201        N  0.06900228  0.35237175  0.94647364     0.66100
H202        H  0.05265775  0.36002118  0.88807980     0.15000
H203        H  0.02927984  0.21422161  0.92332883     0.14700
N204        N  0.35012441  0.22089952  0.86452122     0.73800
O205        O  0.10932580  0.36297146  0.94652811    -0.39600
O206        O  0.04057949  0.37752768  0.95761085    -0.39600
O207        O  0.38129577  0.20007739  0.85212676    -0.40300
O208        O  0.31148566  0.20555867  0.86466937    -0.40400
C209        C  0.34067062  0.07395796  0.61133867    -0.12600
C210        C  0.33321952  0.10415594  0.58908761     0.04400
C211        C  0.99670550  0.14725806  0.59861987    -0.07900
C212        C  0.99623008  0.15809719  0.63007973    -0.08700
C213        C  0.00039210  0.12731404  0.65243905    -0.03200
C214        C  0.00768436  0.08512202  0.64255468     0.03600
N215        N  0.01295365  0.05218130  0.66393660     0.66100
H216        H  0.34378334  0.04104795  0.60461768     0.15000
H217        H  0.99286844  0.19089573  0.63702349     0.14700
N218        N  0.99539788  0.18008828  0.57681508     0.73800
O219        O  0.31359624  0.02935953  0.67157575    -0.39600
O220        O  0.05126441  0.03901730  0.66897716    -0.39600
O221        O  0.29128217  0.18766272  0.56458497    -0.40300
O222        O  0.02742572  0.20574230  0.57478765    -0.40400
C223        C  0.20934432  0.20552769  0.89818951    -0.12600
C224        C  0.19348676  0.16843933  0.88393132     0.04400
C225        C  0.17379355  0.13725320  0.90271901    -0.07900
C226        C  0.16458356  0.14627929  0.93371768    -0.08700
C227        C  0.17475560  0.18573819  0.94684092    -0.03200
C228        C  0.20048252  0.21436891  0.92931217     0.03600
N229        N  0.21447961  0.25419700  0.94171572     0.66100
H230        H  0.22581146  0.22960922  0.88470590     0.15000
H231        H  0.14634217  0.12311643  0.94704156     0.14700
N232        N  0.16071196  0.09698435  0.89066956     0.73800
O233        O  0.25369095  0.25843213  0.95066027    -0.39600
O234        O  0.19254461  0.28661843  0.93618094    -0.39600
O235        O  0.18633785  0.06629809  0.89346144    -0.40300
O236        O  0.12017645  0.08974330  0.88651230    -0.40400
C237        C  0.19117690  0.49999253  0.84885963     0.79900
N238        N  0.16177947  0.47360523  0.83475190    -0.78500
C239        C  0.15609429  0.47532354  0.80405411     0.82300
N240        N  0.17956469  0.50362669  0.78752132    -0.78400
C241        C  0.20917762  0.52977332  0.80088239     0.82400
N242        N  0.21481604  0.52833006  0.83167479    -0.80100
C243        C  0.99904850  0.47368736  0.68454521     0.79900
N244        N  0.97470811  0.50703780  0.69555292    -0.78500
C245        C  0.97690046  0.51951694  0.72568525     0.82300
N246        N  0.00481369  0.49905725  0.74425627    -0.78400
C247        C  0.02911608  0.46578580  0.73342199     0.82400
N248        N  0.02582932  0.45325062  0.70371746    -0.80100
C249        C  0.02854883  0.64001182  0.84190246     0.79900
N250        N  0.05139805  0.34089450  0.82997357    -0.78500
C251        C  0.04534727  0.35325728  0.80074973     0.82300
N252        N  0.34845949  0.33257603  0.78337010    -0.78400
C253        C  0.32567440  0.63222792  0.79457397     0.82400
N254        N  0.33198910  0.61958306  0.82375280    -0.80100
C255        C  0.17204442  0.67024676  0.67822927     0.79900
N256        N  0.19794414  0.64242342  0.69281305    -0.78500
C257        C  0.19870570  0.64172481  0.72382175     0.82300
N258        N  0.17306266  0.66926763  0.74034839    -0.78400
C259        C  0.14616339  0.69654418  0.72629961     0.82400
N260        N  0.14629903  0.69750884  0.69515843    -0.80100
C261        C  0.22927276  0.61275818  0.74048183     0.86100
C262        C  0.26426768  0.63745718  0.75839135    -0.54100
C263        C  0.29043915  0.61321475  0.77575970     0.09000
C264        C  0.27937517  0.56577870  0.77351229     0.20000
C265        C  0.25594448  0.57958304  0.72135515    -0.54800
C266        C  0.28238677  0.55466167  0.73863583     0.09200
C267        C  0.20389461  0.58702292  0.76439677    -0.54400
C268        C  0.22971642  0.56257117  0.78179672     0.09700
H269        H  0.26767189  0.67151195  0.75766696     0.14200
H270        H  0.30030598  0.54602178  0.78790045     0.00000
H271        H  0.25376511  0.57591367  0.69663796     0.14500
H272        H  0.16800016  0.58669273  0.76646690     0.14300
C273        C  0.12472794  0.44681630  0.78717621     0.86100
C274        C  0.08960538  0.47120735  0.77047510    -0.54100
C275        C  0.06294425  0.44668125  0.75262813     0.09000
C276        C  0.07397791  0.39907309  0.75329736     0.20000
C277        C  0.09862496  0.41381066  0.80553679    -0.54800
C278        C  0.07182682  0.38854900  0.78787606     0.09200
C279        C  0.14967255  0.42135141  0.76237475    -0.54400
C280        C  0.12378413  0.39597429  0.74473893     0.09700
H281        H  0.08684830  0.50527474  0.77203097     0.14200
H282        H  0.05261220  0.37875078  0.73867741     0.00000
H283        H  0.10148333  0.41024784  0.83001277     0.14500
H284        H  0.18558043  0.42122792  0.76031597     0.14300
O285        O  0.08984780  0.61692455  0.98294063    -0.72100
O286        O  0.14360432  0.56582971  0.05082466    -0.72400
O287        O  0.15809115  0.56659273  0.98887518    -0.72200
O288        O  0.07568728  0.61689501  0.04469525    -0.72200
O289        O  0.03321927  0.56160981  0.04207866    -0.72200
O290        O  0.11327601  0.51350865  0.98265919    -0.72200
O291        O  0.10207686  0.51032116  0.04465485    -0.72200
O292        O  0.04448031  0.56379377  0.97955674    -0.72300
V293        V  0.11594201  0.59047693  0.01683983     1.35200
V294        V  0.07401703  0.53836560  0.01231293     1.35200
C295        C  0.05963155  0.59769105  0.96852012     0.77100
C296        C  0.13087854  0.53002865  0.06004534     0.77200
C297        C  0.14806259  0.53316455  0.97436226     0.77000
C298        C  0.04220330  0.59688174  0.05467996     0.77000
O299        O  0.23300014  0.38138192  0.47726991    -0.72100
O300        O  0.29085899  0.43925431  0.54251111    -0.72400
O301        O  0.30184579  0.43281737  0.48046426    -0.72200
O302        O  0.22139815  0.38799822  0.53917087    -0.72200
O303        O  0.26454521  0.33492407  0.54527479    -0.72200
O304        O  0.34382497  0.37833553  0.48394635    -0.72200
O305        O  0.33436728  0.38593772  0.54690458    -0.72200
O306        O  0.27453069  0.32703655  0.48288446    -0.72300
V307        V  0.26266082  0.40927313  0.50994588     1.35200
V308        V  0.30364541  0.35763721  0.51472667     1.35200
C309        C  0.24578698  0.34551024  0.46763669     0.77100
C310        C  0.32034269  0.42102491  0.55724936     0.77200
C311        C  0.33413105  0.41152177  0.47008248     0.77000
C312        C  0.23046705  0.35537207  0.55372480     0.77000
C313        C  0.17409667  0.47480043  0.18178629     0.79900
N314        N  0.15454908  0.43926405  0.19338075    -0.78500
C315        C  0.16806203  0.42400104  0.22048359     0.82300
N316        N  0.20107252  0.44392661  0.23547469    -0.78400
C317        C  0.22032741  0.47925782  0.22464340     0.82400
N318        N  0.20678767  0.49490640  0.19774750    -0.80100
C319        C  0.03824395  0.44267426  0.34247091     0.79900
N320        N  0.01149463  0.46894102  0.32741840    -0.78500
C321        C  0.01234241  0.46947682  0.29614367     0.82300
N322        N  0.03990197  0.44333647  0.27980802    -0.78200
C323        C  0.06667059  0.41710096  0.29459457     0.82400
N324        N  0.06545752  0.41701318  0.32575353    -0.80100
C325        C  0.00996888  0.62854385  0.18065218     0.79900
N326        N  0.04264938  0.31854018  0.19462835    -0.78500
C327        C  0.05279153  0.31096938  0.22418062     0.82300
N328        N  0.36514571  0.27933425  0.23911367    -0.78400
C329        C  0.33272170  0.58970613  0.22570895     0.82400
N330        N  0.32192336  0.59754763  0.19647565    -0.80100
C331        C  0.21301187  0.62714998  0.34132452     0.79900
N332        N  0.18589687  0.64932384  0.32367095    -0.78500
C333        C  0.18181211  0.64030313  0.29329187     0.82300
N334        N  0.20557447  0.60847510  0.28026067    -0.78400
C335        C  0.23243236  0.58531634  0.29763798     0.82400
N336        N  0.23613353  0.59474682  0.32814878    -0.80100
C337        C  0.31569058  0.49784443  0.27921169     0.86100
C338        C  0.34092095  0.52794790  0.25814038    -0.54100
C339        C  0.31433178  0.55324124  0.24184943     0.09000
C340        C  0.26463894  0.54567238  0.24779132     0.20000
C341        C  0.28591625  0.52650872  0.29928806    -0.54800
C342        C  0.25947821  0.55190619  0.28294076     0.09200
C343        C  0.28399694  0.47340644  0.25853966    -0.54400
C344        C  0.25703399  0.49814864  0.24207822     0.09700
H345        H  0.04346939  0.53059714  0.25746178     0.14200
H346        H  0.24307454  0.56609040  0.23435333     0.00000
H347        H  0.28674618  0.52785108  0.32407944     0.14500
H348        H  0.28211773  0.43921714  0.25775919     0.14300
C349        C  0.15225438  0.33297977  0.27406463     0.86100
C350        C  0.17629385  0.36049616  0.25068891    -0.54100
C351        C  0.14914426  0.38560043  0.23441027     0.09000
C352        C  0.09941888  0.37929183  0.24258724     0.20000
C353        C  0.12420613  0.36338894  0.29359158    -0.54800
C354        C  0.09651539  0.38766476  0.27770838     0.09200
C355        C  0.11884760  0.30736813  0.25572108    -0.54400
C356        C  0.09097256  0.33119914  0.23915038     0.09700
H357        H  0.21215611  0.36302717  0.24939096     0.14200
H358        H  0.07679008  0.39883950  0.22930880     0.00000
H359        H  0.12524025  0.36493363  0.31836184     0.14500
H360        H  0.11601334  0.60659175  0.25647165     0.14300
C361        C  0.34460255  0.46201374  0.42776965    -0.12600
C362        C  0.35494600  0.42287210  0.44005171     0.04400
C363        C  0.04272907  0.39268358  0.42061187    -0.07900
C364        C  0.04921918  0.40071905  0.38935723    -0.08700
C365        C  0.03542663  0.43851236  0.37652074    -0.03200
C366        C  0.35110423  0.47005555  0.39651440     0.03600
N367        N  0.33763237  0.50974635  0.38549304     0.66100
H368        H  0.32871301  0.48596711  0.44219496     0.15000
H369        H  0.06316070  0.37590467  0.37475914     0.14700
N370        N  0.05473037  0.35236788  0.43142887     0.73800
O371        O  0.29712355  0.51550409  0.38102462    -0.39600
O372        O  0.36292370  0.54128016  0.38878346    -0.39600
O373        O  0.03046801  0.32086568  0.42535694    -0.40300
O374        O  0.09401194  0.34659954  0.43938276    -0.40400
C375        C  0.21256227  0.35721496  0.41725152    -0.12600
C376        C  0.23157311  0.32884017  0.43717368     0.04400
C377        C  0.24102083  0.61989363  0.42573284    -0.07900
C378        C  0.23403139  0.60938854  0.39473542    -0.08700
C379        C  0.21784166  0.63895604  0.37440068    -0.03200
C380        C  0.20670480  0.34714095  0.38625048     0.03600
N381        N  0.19114463  0.37951669  0.36714076     0.66100
H382        H  0.20451799  0.38884897  0.42524281     0.15000
H383        H  0.24173835  0.57783715  0.38647136     0.14700
N384        N  0.25811885  0.58857480  0.44510006     0.73800
O385        O  0.15159734  0.39129334  0.37040430    -0.39600
O386        O  0.21891894  0.40368040  0.35430540    -0.39600
O387        O  0.23235227  0.56045128  0.45532695    -0.40300
O388        O  0.29931551  0.58287706  0.44551733    -0.40400
C389        C  0.03448300  0.65018888  0.09676910    -0.12600
C390        C  0.01903714  0.61243049  0.08315250     0.04400
C391        C  0.99001300  0.58671472  0.10056367    -0.07900
C392        C  0.98354776  0.59536952  0.13195535    -0.08700
C393        C  0.00541306  0.62931558  0.14667194    -0.03200
C394        C  0.02806278  0.65884142  0.12814241     0.03600
N395        N  0.05001119  0.36238012  0.14069076     0.66100
H396        H  0.05507782  0.67168776  0.08360493     0.15000
H397        H  0.96395317  0.57314168  0.14515543     0.14700
N398        N  0.96913493  0.55016834  0.08752609     0.73800
O399        O  0.09079496  0.36211720  0.14617396    -0.39600
O400        O  0.03087781  0.39723052  0.13843677    -0.39600
O401        O  0.98350595  0.51425542  0.09367611    -0.40300
O402        O  0.93036280  0.55322432  0.07778472    -0.40400
C403        C  0.15286812  0.45914650  0.12766669    -0.12600
C404        C  0.16300730  0.48920687  0.15066726     0.04400
C405        C  0.16484662  0.53210448  0.14290579    -0.07900
C406        C  0.15661644  0.54403936  0.11286126    -0.08700
C407        C  0.14570525  0.51418262  0.08994615    -0.03200
C408        C  0.14423003  0.47116444  0.09758297     0.03600
N409        N  0.13558341  0.43902886  0.07500716     0.66100
H410        H  0.15246405  0.42612627  0.13285299     0.15000
H411        H  0.15675847  0.57717023  0.10787527     0.14700
N412        N  0.17205468  0.56441266  0.16561025     0.73800
O413        O  0.16776958  0.42133395  0.06127648    -0.39600
O414        O  0.09809764  0.42123131  0.07484346    -0.39600
O415        O  0.20850466  0.58408871  0.16565739    -0.40300
O416        O  0.13917485  0.58006320  0.17988979    -0.40400
C417        C  0.17979354  0.37715605  0.59678841    -0.12600
C418        C  0.20487570  0.34511330  0.58220174     0.04400
C419        C  0.20738554  0.63986355  0.59750245    -0.07900
C420        C  0.19285225  0.63730207  0.62805108    -0.08700
C421        C  0.17593209  0.67251336  0.64425241    -0.03200
C422        C  0.16566550  0.37427175  0.62754197     0.03600
N423        N  0.14603899  0.41048988  0.64208655     0.66100
H424        H  0.17456776  0.40654289  0.58526536     0.15000
H425        H  0.19771019  0.60798010  0.63975709     0.14700
N426        N  0.22916440  0.60438969  0.58373058     0.73800
O427        O  0.17073173  0.43776144  0.65465006    -0.39600
O428        O  0.10734140  0.42055020  0.63516330    -0.39600
O429        O  0.26696273  0.59499893  0.59294242    -0.40300
O430        O  0.20641433  0.57668060  0.56996184    -0.40400
C431        C  0.04774171  0.66052090  0.89558629    -0.12600
C432        C  0.03360720  0.62904486  0.87471519     0.04400
C433        C  0.02486301  0.58828079  0.88582042    -0.07900
C434        C  0.03051967  0.57998808  0.91693148    -0.08700
C435        C  0.04619196  0.61107144  0.93757464    -0.03200
C436        C  0.05447080  0.65195777  0.92653166     0.03600
N437        N  0.06978473  0.68527456  0.94623586     0.66100
H438        H  0.05405999  0.69226942  0.88781263     0.15000
H439        H  0.02516107  0.54799830  0.92451703     0.14700
N440        N  0.34718175  0.55412320  0.86544575     0.73800
O441        O  0.11052788  0.69423920  0.94628671    -0.39600
O442        O  0.04246126  0.71198717  0.95669908    -0.39600
O443        O  0.37792695  0.53215863  0.85363972    -0.40300
O444        O  0.30817751  0.53967314  0.86561859    -0.40400
C445        C  0.33310122  0.40574582  0.61142301    -0.12600
C446        C  0.33178178  0.43604196  0.58857915     0.04400
C447        C  0.00082419  0.47899665  0.59740518    -0.07900
C448        C  0.00023244  0.49084827  0.62872065    -0.08700
C449        C  0.99848855  0.46041345  0.65164206    -0.03200
C450        C  0.99936694  0.41739187  0.64264114     0.03600
N451        N  0.99864111  0.38485574  0.66475406     0.66100
H452        H  0.33149793  0.37252763  0.60520463     0.15000
H453        H  0.00206271  0.52397420  0.63513564     0.14700
N454        N  0.00754872  0.51060068  0.57495468     0.73800
O455        O  0.29742764  0.36627260  0.67138266    -0.39600
O456        O  0.03436247  0.36720735  0.67112472    -0.39600
O457        O  0.30638586  0.52599920  0.56242709    -0.40300
O458        O  0.04528960  0.52748157  0.57174401    -0.40400
C459        C  0.20690750  0.54006212  0.89723106    -0.12600
C460        C  0.19179910  0.50266528  0.88302444     0.04400
C461        C  0.17202919  0.47147112  0.90177160    -0.07900
C462        C  0.16252682  0.48051899  0.93273065    -0.08700
C463        C  0.17245120  0.52002244  0.94587446    -0.03200
C464        C  0.19769116  0.54895889  0.92829109     0.03600
N465        N  0.21075068  0.58915114  0.94055516     0.66100
H466        H  0.22308808  0.56429031  0.88373854     0.15000
H467        H  0.14443274  0.45724905  0.94603794     0.14700
N468        N  0.15918357  0.43113945  0.88971203     0.73800
O469        O  0.24965853  0.59413771  0.94992334    -0.39600
O470        O  0.18834065  0.62111747  0.93461491    -0.39600
O471        O  0.18510754  0.40064071  0.89230849    -0.40300
O472        O  0.11866406  0.42361206  0.88571857    -0.40400
C473        C  0.19065491  0.83421241  0.84955741     0.79900
N474        N  0.16133754  0.80757833  0.83556952    -0.78500
C475        C  0.15543673  0.80919443  0.80488122     0.82300
N476        N  0.17858937  0.83763416  0.78826312    -0.78400
C477        C  0.20818986  0.86391450  0.80149238     0.82400
N478        N  0.21407004  0.86257044  0.83225805    -0.80100
C479        C  0.99794472  0.80466953  0.68550894     0.79900
N480        N  0.97330054  0.83795623  0.69639467    -0.78500
C481        C  0.97557485  0.85106064  0.72638633     0.82300
N482        N  0.00374769  0.83109593  0.74507469    -0.78400
C483        C  0.02824888  0.79781255  0.73444689     0.82400
N484        N  0.02499714  0.78485926  0.70483186    -0.80100
C485        C  0.02860778  0.97283120  0.84156268     0.79900
N486        N  0.05219654  0.67292963  0.83024659    -0.78500
C487        C  0.04653232  0.68538536  0.80101670     0.82300
N488        N  0.34949269  0.66524824  0.78341498    -0.78400
C489        C  0.32562491  0.96523543  0.79437637     0.82400
N490        N  0.33205819  0.95241608  0.82351175    -0.80100
C491        C  0.17247880  0.00427352  0.67816728     0.79900
N492        N  0.19806418  0.97614542  0.69274968    -0.78500
C493        C  0.19840801  0.97502381  0.72375266     0.82300
N494        N  0.17267489  0.00250478  0.74028012    -0.78400
C495        C  0.14600515  0.03002232  0.72624746     0.82400
N496        N  0.14656100  0.03138946  0.69510891    -0.80100
C497        C  0.22884363  0.94587855  0.74045727     0.86100
C498        C  0.26425594  0.97047866  0.75806768    -0.54100
C499        C  0.29026639  0.94625887  0.77557531     0.09000
C500        C  0.27859794  0.89890523  0.77376173     0.20000
C501        C  0.25503763  0.91207178  0.72153479    -0.54800
C502        C  0.28129247  0.88711666  0.73897953     0.09200
C503        C  0.20332017  0.92077347  0.76466349    -0.54400
C504        C  0.22895218  0.89636165  0.78221112     0.09700
H505        H  0.26798420  0.00448648  0.75709171     0.14200
H506        H  0.29934950  0.87916957  0.78828680     0.00000
H507        H  0.25269647  0.90805133  0.69685039     0.14500
H508        H  0.16743319  0.92078006  0.76680749     0.14300
C509        C  0.12449618  0.78021543  0.78800236     0.86100
C510        C  0.08870474  0.80410603  0.77155717    -0.54100
C511        C  0.06248012  0.77926337  0.75361816     0.09000
C512        C  0.07462718  0.73190578  0.75391239     0.20000
C513        C  0.09922340  0.74645611  0.80620112    -0.54800
C514        C  0.07285687  0.72092700  0.78839596     0.09200
C515        C  0.14986353  0.75551732  0.76296588    -0.54400
C516        C  0.12444208  0.72988442  0.74521277     0.09700
H517        H  0.08522320  0.83809285  0.77332321     0.14200
H518        H  0.05363643  0.71136014  0.73918356     0.00000
H519        H  0.10216798  0.74272897  0.83066192     0.14500
H520        H  0.18576677  0.75606707  0.76083416     0.14300
O521        O  0.08878227  0.95054120  0.98310813    -0.72100
O522        O  0.14202835  0.90016067  0.05161941    -0.72400
O523        O  0.15741972  0.90087945  0.98959541    -0.72200
O524        O  0.07379609  0.95062625  0.04489882    -0.72200
O525        O  0.03185110  0.89500590  0.04203791    -0.72200
O526        O  0.11322769  0.84734609  0.98328742    -0.72200
O527        O  0.10100619  0.84437252  0.04526822    -0.72200
O528        O  0.04406799  0.89694130  0.97947380    -0.72300
V529        V  0.11465639  0.92446742  0.01730570     1.35200
V530        V  0.07328404  0.87199458  0.01259108     1.35200
C531        C  0.05907685  0.93089229  0.96843741     0.77100
C532        C  0.12934548  0.86435014  0.06089491     0.77200
C533        C  0.14785957  0.86731900  0.97507400     0.77000
C534        C  0.04046514  0.93027958  0.05477492     0.77000
O535        O  0.23283667  0.71338408  0.47696877    -0.72100
O536        O  0.28927547  0.77084295  0.54264760    -0.72400
O537        O  0.30155472  0.76488419  0.48076110    -0.72200
O538        O  0.22013779  0.71968481  0.53851209    -0.72200
O539        O  0.26333685  0.66681598  0.54530832    -0.72200
O540        O  0.34339710  0.71033162  0.48431838    -0.72200
O541        O  0.33312171  0.71799032  0.54737841    -0.72200
O542        O  0.27406278  0.65889981  0.48291459    -0.72300
V543        V  0.26188034  0.74109603  0.50982163     1.35200
V544        V  0.30284285  0.68954568  0.51493456     1.35200
C545        C  0.24548299  0.67742426  0.46753237     0.77100
C546        C  0.31866816  0.75298512  0.55765994     0.77200
C547        C  0.33393845  0.74364738  0.47049448     0.77000
C548        C  0.22907222  0.68728913  0.55333448     0.77000
C549        C  0.17301390  0.80909861  0.18282538     0.79900
N550        N  0.15355524  0.77347577  0.19436974    -0.78500
C551        C  0.16745778  0.75782556  0.22125280     0.82300
N552        N  0.20075131  0.77749173  0.23611859    -0.78400
C553        C  0.21992037  0.81293128  0.22539574     0.82400
N554        N  0.20599570  0.82894807  0.19869217    -0.80100
C555        C  0.03834319  0.77610421  0.34329498     0.79900
N556        N  0.01159171  0.80251971  0.32833212    -0.78500
C557        C  0.01218090  0.80302704  0.29703582     0.82300
N558        N  0.03947101  0.77671272  0.28061493    -0.78200
C559        C  0.06621247  0.75032826  0.29529827     0.82400
N560        N  0.06526416  0.75028637  0.32645914    -0.80100
C561        C  0.00934844  0.96160471  0.18094729     0.79900
N562        N  0.04197959  0.65205048  0.19487057    -0.78500
C563        C  0.05227143  0.64450440  0.22441614     0.82300
N564        N  0.36488482  0.61277888  0.23919194    -0.78400
C565        C  0.33277409  0.92286832  0.22611971     0.82400
N566        N  0.32158848  0.93079553  0.19697697    -0.80100
C567        C  0.21436421  0.96210379  0.34153238     0.79900
N568        N  0.18688618  0.98381920  0.32380200    -0.78500
C569        C  0.18220115  0.97392621  0.29357058     0.82300
N570        N  0.20575250  0.94181654  0.28079485    -0.78400
C571        C  0.23293802  0.91913880  0.29823063     0.82400
N572        N  0.23723115  0.92935216  0.32857672    -0.80100
C573        C  0.31566666  0.83118155  0.27987745     0.86100
C574        C  0.34092623  0.86114999  0.25868452    -0.54100
C575        C  0.31436661  0.88650193  0.24240392     0.09000
C576        C  0.26468594  0.87913230  0.24847729     0.20000
C577        C  0.28612649  0.86004025  0.29998403    -0.54800
C578        C  0.25973577  0.88548794  0.28363603     0.09200
C579        C  0.28372377  0.80683432  0.25928402    -0.54400
C580        C  0.25680483  0.83165239  0.24281950     0.09700
H581        H  0.04332887  0.86385319  0.25805355     0.14200
H582        H  0.24316452  0.89961086  0.23505451     0.00000
H583        H  0.28708597  0.86147166  0.32478164     0.14500
H584        H  0.28168728  0.77265331  0.25854379     0.14300
C585        C  0.15168273  0.66613581  0.27435697     0.86100
C586        C  0.17574486  0.69405059  0.25124223    -0.54100
C587        C  0.14858788  0.71931556  0.23508872     0.09000
C588        C  0.09884535  0.71278291  0.24312303     0.20000
C589        C  0.12345389  0.69623856  0.29405491    -0.54800
C590        C  0.09582323  0.72074746  0.27829208     0.09200
C591        C  0.11843558  0.64071361  0.25576946    -0.54400
C592        C  0.09053640  0.66469067  0.23933282     0.09700
H593        H  0.21160461  0.69663707  0.25000346     0.14200
H594        H  0.07622491  0.73246946  0.22994652     0.00000
H595        H  0.12441359  0.69748860  0.31883445     0.14500
H596        H  0.11638984  0.93965627  0.25664987     0.14300
C597        C  0.34500925  0.79462793  0.42847859    -0.12600
C598        C  0.35510242  0.75529458  0.44059840     0.04400
C599        C  0.04266944  0.72538049  0.42124163    -0.07900
C600        C  0.04952834  0.73386047  0.39007144    -0.08700
C601        C  0.03566840  0.77174834  0.37737359    -0.03200
C602        C  0.35167766  0.80295901  0.39726046     0.03600
N603        N  0.33865273  0.84290204  0.38641923     0.66100
H604        H  0.32918960  0.81851790  0.44299682     0.15000
H605        H  0.06369062  0.70924624  0.37539692     0.14700
N606        N  0.05458601  0.68492108  0.43183333     0.73800
O607        O  0.29817344  0.84933218  0.38229048    -0.39600
O608        O  0.36459071  0.87401227  0.38941126    -0.39600
O609        O  0.02952189  0.65376423  0.42642424    -0.40300
O610        O  0.09418276  0.67858643  0.43881206    -0.40400
C611        C  0.21266840  0.68947501  0.41719880    -0.12600
C612        C  0.23112575  0.66081324  0.43715150     0.04400
C613        C  0.24336252  0.95621160  0.42588562    -0.07900
C614        C  0.23624446  0.94535750  0.39496063    -0.08700
C615        C  0.21974171  0.97457966  0.37449055    -0.03200
C616        C  0.20663418  0.67945376  0.38625609     0.03600
N617        N  0.19190555  0.71212227  0.36707693     0.66100
H618        H  0.20526516  0.72130647  0.42510106     0.15000
H619        H  0.24399485  0.91373348  0.38688548     0.14700
N620        N  0.26060190  0.92508846  0.44535622     0.73800
O621        O  0.15260560  0.72466388  0.37021428    -0.39600
O622        O  0.22028394  0.73578067  0.35436061    -0.39600
O623        O  0.23472378  0.89757987  0.45630680    -0.40300
O624        O  0.30171681  0.91876411  0.44517226    -0.40400
C625        C  0.03155402  0.98366860  0.09678439    -0.12600
C626        C  0.01716850  0.94539361  0.08334671     0.04400
C627        C  0.98935227  0.91889740  0.10105935    -0.07900
C628        C  0.98323147  0.92746694  0.13249399    -0.08700
C629        C  0.00418446  0.96212720  0.14698441    -0.03200
C630        C  0.02536162  0.99228120  0.12820992     0.03600
N631        N  0.04687411  0.69664502  0.14079629     0.66100
H632        H  0.05109855  0.00574628  0.08338814     0.15000
H633        H  0.96472825  0.90465174  0.14588888     0.14700
N634        N  0.96957194  0.88160655  0.08830650     0.73800
O635        O  0.08773886  0.69810599  0.14599048    -0.39600
O636        O  0.02600420  0.73061646  0.13884259    -0.39600
O637        O  0.98567872  0.84628614  0.09417807    -0.40300
O638        O  0.93030649  0.88318039  0.07925671    -0.40400
C639        C  0.15031669  0.79372529  0.12895159    -0.12600
C640        C  0.16159252  0.82368676  0.15175184     0.04400
C641        C  0.16412942  0.86650610  0.14378456    -0.07900
C642        C  0.15562651  0.87840446  0.11373172    -0.08700
C643        C  0.14382092  0.84859903  0.09098224    -0.03200
C644        C  0.14141824  0.80568577  0.09889201     0.03600
N645        N  0.13150493  0.77351137  0.07661184     0.66100
H646        H  0.14925908  0.76076216  0.13425378     0.15000
H647        H  0.15649129  0.91148174  0.10858397     0.14700
N648        N  0.17260514  0.89881332  0.16626102     0.73800
O649        O  0.16293938  0.75402103  0.06337353    -0.39600
O650        O  0.09316909  0.75747381  0.07635911    -0.39600
O651        O  0.21004652  0.91668474  0.16647151    -0.40300
O652        O  0.14036604  0.91629719  0.18008262    -0.40400
C653        C  0.18111527  0.71148551  0.59686898    -0.12600
C654        C  0.20339616  0.67794702  0.58188477     0.04400
C655        C  0.21084463  0.97607495  0.59772409    -0.07900
C656        C  0.19557851  0.97269939  0.62802361    -0.08700
C657        C  0.17716664  0.00718856  0.64423738    -0.03200
C658        C  0.16840481  0.70968086  0.62790761     0.03600
N659        N  0.15331388  0.74754931  0.64289191     0.66100
H660        H  0.17773591  0.74126051  0.58547551     0.15000
H661        H  0.20100762  0.94334044  0.63954642     0.14700
N662        N  0.23382967  0.94133770  0.58398115     0.73800
O663        O  0.18086253  0.77053451  0.65692355    -0.39600
O664        O  0.11758201  0.76354425  0.63467431    -0.39600
O665        O  0.27287799  0.93446021  0.59197380    -0.40300
O666        O  0.21181254  0.91203577  0.57142605    -0.40400
C667        C  0.04650967  0.99356674  0.89541938    -0.12600
C668        C  0.03365858  0.96181144  0.87436105     0.04400
C669        C  0.02627266  0.92073078  0.88524951    -0.07900
C670        C  0.03188415  0.91242142  0.91638275    -0.08700
C671        C  0.04607156  0.94389770  0.93727428    -0.03200
C672        C  0.05313446  0.98504781  0.92639116     0.03600
N673        N  0.06699666  0.01871719  0.94630411     0.66100
H674        H  0.05184379  0.02552303  0.88777701     0.15000
H675        H  0.02756607  0.88025035  0.92383448     0.14700
N676        N  0.35023885  0.88635407  0.86476604     0.73800
O677        O  0.10745720  0.02874293  0.94684225    -0.39600
O678        O  0.03867441  0.04473175  0.95638610    -0.39600
O679        O  0.38182377  0.86517081  0.85328631    -0.40300
O680        O  0.31155555  0.87115644  0.86422959    -0.40400
C681        C  0.34124031  0.73964993  0.61085814    -0.12600
C682        C  0.33037706  0.76910565  0.58881507     0.04400
C683        C  0.98800857  0.81068760  0.59889665    -0.07900
C684        C  0.98878166  0.82162306  0.63027145    -0.08700
C685        C  0.99805783  0.79169111  0.65238002    -0.03200
C686        C  0.00910342  0.75034655  0.64212794     0.03600
N687        N  0.01842025  0.71792678  0.66318261     0.66100
H688        H  0.34667769  0.70706307  0.60403667     0.15000
H689        H  0.98186561  0.85385318  0.63733480     0.14700
N690        N  0.97917569  0.84271691  0.57751411     0.73800
O691        O  0.31950433  0.69293496  0.67069668    -0.39600
O692        O  0.05809088  0.70832902  0.66758368    -0.39600
O693        O  0.27820560  0.84916820  0.56704628    -0.40300
O694        O  0.00748216  0.87155528  0.57313724    -0.40400
C695        C  0.20661822  0.87445969  0.89786299    -0.12600
C696        C  0.19159540  0.83697467  0.88371810     0.04400
C697        C  0.17228990  0.80566163  0.90255473    -0.07900
C698        C  0.16290298  0.81469126  0.93353129    -0.08700
C699        C  0.17248259  0.85431814  0.94661659    -0.03200
C700        C  0.19747108  0.88337590  0.92895103     0.03600
N701        N  0.21050467  0.92359302  0.94118955     0.66100
H702        H  0.22271800  0.89868478  0.88430905     0.15000
H703        H  0.14513311  0.79127339  0.94690782     0.14700
N704        N  0.15998333  0.76512991  0.89058554     0.73800
O705        O  0.24969409  0.92882751  0.94994772    -0.39600
O706        O  0.18770389  0.95543124  0.93557127    -0.39600
O707        O  0.18637376  0.73499533  0.89317235    -0.40300
O708        O  0.11957442  0.75706592  0.88657107    -0.40400
C709        C  0.52533373  0.16625128  0.84975164     0.79900
N710        N  0.49571644  0.13986775  0.83581415    -0.78500
C711        C  0.48931362  0.14193496  0.80520661     0.82300
N712        N  0.51225113  0.17055856  0.78863054    -0.78400
C713        C  0.54208917  0.19664059  0.80178540     0.82400
N714        N  0.54850779  0.19483669  0.83247669    -0.80100
C715        C  0.33288019  0.13968079  0.68561833     0.79900
N716        N  0.30806963  0.17279914  0.69654770    -0.78500
C717        C  0.30975873  0.18532663  0.72669829     0.82300
N718        N  0.33759632  0.16504042  0.74545154    -0.78400
C719        C  0.36226732  0.13192578  0.73471864     0.82400
N720        N  0.35953514  0.11949354  0.70497681    -0.80100
C721        C  0.36160689  0.30757546  0.84173118     0.79900
N722        N  0.38546242  0.00593120  0.83002906    -0.78500
C723        C  0.37976104  0.01854105  0.80084861     0.82300
N724        N  0.68293484  0.99817983  0.78326324    -0.78400
C725        C  0.65820463  0.29952253  0.79461038     0.82400
N726        N  0.66495721  0.28691764  0.82375285    -0.80100
C727        C  0.50430722  0.33543492  0.67796765     0.79900
N728        N  0.53030183  0.30779075  0.69271270    -0.78500
C729        C  0.53102195  0.30728813  0.72373955     0.82300
N730        N  0.50531906  0.33493364  0.74011383    -0.78400
C731        C  0.47833631  0.36202460  0.72594658     0.82400
N732        N  0.47842915  0.36271445  0.69479437    -0.80100
C733        C  0.56181787  0.27867999  0.74062991     0.86100
C734        C  0.59680634  0.30381634  0.75825995    -0.54100
C735        C  0.62308710  0.28001857  0.77588412     0.09000
C736        C  0.61214794  0.23250484  0.77413606     0.20000
C737        C  0.58856204  0.24518551  0.72183818    -0.54800
C738        C  0.61512216  0.22065749  0.73936609     0.09200
C739        C  0.53659076  0.25335679  0.76486294    -0.54400
C740        C  0.56251030  0.22932765  0.78251347     0.09700
H741        H  0.60007935  0.33785432  0.75719472     0.14200
H742        H  0.63316612  0.21310213  0.78871494     0.00000
H743        H  0.58633966  0.24103559  0.69715583     0.14500
H744        H  0.50069699  0.25292146  0.76693840     0.14300
C745        C  0.45813839  0.11323457  0.78829877     0.86100
C746        C  0.42247293  0.13747942  0.77200968    -0.54100
C747        C  0.39613378  0.11295481  0.75394583     0.09000
C748        C  0.40800249  0.06550498  0.75397578     0.20000
C749        C  0.43268388  0.07941448  0.80632304    -0.54800
C750        C  0.40615641  0.05417955  0.78839071     0.09200
C751        C  0.48335238  0.08865768  0.76312892    -0.54400
C752        C  0.45781348  0.06330672  0.74525850     0.09700
H753        H  0.41922215  0.17148140  0.77391066     0.14200
H754        H  0.38689600  0.04522150  0.73914354     0.00000
H755        H  0.43564707  0.07542135  0.83075472     0.14500
H756        H  0.51925883  0.08903681  0.76100406     0.14300
O757        O  0.42485027  0.28329143  0.98256357    -0.72100
O758        O  0.47702117  0.23266162  0.05136864    -0.72400
O759        O  0.49290315  0.23284967  0.98948969    -0.72200
O760        O  0.40948668  0.28380284  0.04424774    -0.72200
O761        O  0.36696904  0.22856535  0.04158106    -0.72200
O762        O  0.44804130  0.17984999  0.98306009    -0.72200
O763        O  0.43552262  0.17719157  0.04497361    -0.72200
O764        O  0.37940274  0.23023070  0.97905022    -0.72300
V765        V  0.45020400  0.25707306  0.01690772     1.35200
V766        V  0.40823947  0.20502362  0.01222551     1.35200
C767        C  0.39473889  0.26405762  0.96801097     0.77100
C768        C  0.46395955  0.19697037  0.06063422     0.77200
C769        C  0.48309379  0.19930789  0.97504236     0.77000
C770        C  0.37592336  0.26385463  0.05417637     0.77000
O771        O  0.56854293  0.05000129  0.47713700    -0.72100
O772        O  0.62564325  0.10691973  0.54292646    -0.72400
O773        O  0.63760804  0.10101654  0.48099780    -0.72200
O774        O  0.55608732  0.05629710  0.53891431    -0.72200
O775        O  0.59907882  0.00321583  0.54546497    -0.72200
O776        O  0.67900840  0.04611771  0.48434721    -0.72200
O777        O  0.66921880  0.05377190  0.54735036    -0.72200
O778        O  0.60935199  0.99523284  0.48307583    -0.72300
V779        V  0.59787286  0.07746252  0.51008465     1.35200
V780        V  0.63851198  0.02563455  0.51502234     1.35200
C781        C  0.58097251  0.01396693  0.46765488     0.77100
C782        C  0.65502453  0.08877100  0.55777609     0.77200
C783        C  0.66966375  0.07947239  0.47056687     0.77000
C784        C  0.56501111  0.02384325  0.55367747     0.77000
C785        C  0.50663897  0.14184758  0.18260653     0.79900
N786        N  0.48729730  0.10621956  0.19419045    -0.78500
C787        C  0.50121642  0.09074265  0.22111110     0.82300
N788        N  0.53440896  0.11058953  0.23597474    -0.78400
C789        C  0.55345064  0.14605814  0.22518246     0.82400
N790        N  0.53951705  0.16188365  0.19843730    -0.80100
C791        C  0.37219224  0.10992567  0.34275941     0.79900
N792        N  0.34544804  0.13625692  0.32773482    -0.78500
C793        C  0.34594948  0.13649186  0.29643712     0.82300
N794        N  0.37312387  0.11000370  0.28008565    -0.78200
C795        C  0.39981240  0.08369589  0.29486233     0.82400
N796        N  0.39897145  0.08393599  0.32600709    -0.80100
C797        C  0.34403686  0.29493371  0.18035947     0.79900
N798        N  0.37519205  0.98506002  0.19488375    -0.78500
C799        C  0.38591971  0.97744867  0.22437254     0.82300
N800        N  0.69842182  0.94592502  0.23950678    -0.78400
C801        C  0.66642190  0.25617550  0.22547622     0.82400
N802        N  0.65583676  0.26394673  0.19616178    -0.80100
C803        C  0.54733235  0.29514635  0.34124305     0.79900
N804        N  0.52005164  0.31703197  0.32350467    -0.78500
C805        C  0.51573895  0.30754433  0.29319491     0.82300
N806        N  0.53943354  0.27558877  0.28031779    -0.78400
C807        C  0.56647176  0.25273513  0.29774515     0.82400
N808        N  0.57040073  0.26258481  0.32818961    -0.80100
C809        C  0.64924412  0.16480855  0.27945178     0.86100
C810        C  0.67445900  0.19455358  0.25808281    -0.54100
C811        C  0.64789152  0.21980105  0.24172320     0.09000
C812        C  0.59819693  0.21254214  0.24795065     0.20000
C813        C  0.61981727  0.19382309  0.29949482    -0.54800
C814        C  0.59337202  0.21915923  0.28311410     0.09200
C815        C  0.61723462  0.14030956  0.25904087    -0.54400
C816        C  0.59027147  0.16499153  0.24252756     0.09700
H817        H  0.37706903  0.19712200  0.25731329     0.14200
H818        H  0.57662570  0.23292141  0.23448836     0.00000
H819        H  0.62084481  0.19539143  0.32428701     0.14500
H820        H  0.61521599  0.10612501  0.25843428     0.14300
C821        C  0.48523854  0.99945299  0.27450197     0.86100
C822        C  0.50941223  0.02721544  0.25134951    -0.54100
C823        C  0.48234032  0.05231648  0.23501602     0.09000
C824        C  0.43256389  0.04579140  0.24289430     0.20000
C825        C  0.45687490  0.02960051  0.29398300    -0.54800
C826        C  0.42934684  0.05396130  0.27802944     0.09200
C827        C  0.45210651  0.97384640  0.25587289    -0.54400
C828        C  0.42429456  0.99768593  0.23921174     0.09700
H829        H  0.54527307  0.02985518  0.25022023     0.14200
H830        H  0.41002631  0.06540596  0.22959460     0.00000
H831        H  0.45773311  0.03102344  0.31877576     0.14500
H832        H  0.44966038  0.27331464  0.25671064     0.14300
C833        C  0.67999144  0.12983480  0.42819309    -0.12600
C834        C  0.69038863  0.09070372  0.44048984     0.04400
C835        C  0.37778978  0.06030375  0.42096123    -0.07900
C836        C  0.38406090  0.06831711  0.38968927    -0.08700
C837        C  0.36994377  0.10601290  0.37684412    -0.03200
C838        C  0.68578739  0.13763730  0.39684948     0.03600
N839        N  0.67155340  0.17703279  0.38575140     0.66100
H840        H  0.66432318  0.15387698  0.44266288     0.15000
H841        H  0.39785384  0.04344361  0.37506813     0.14700
N842        N  0.38913386  0.01972277  0.43163337     0.73800
O843        O  0.63084674  0.18231271  0.38173405    -0.39600
O844        O  0.69660633  0.20884336  0.38842595    -0.39600
O845        O  0.36339727  0.98896548  0.42655137    -0.40300
O846        O  0.42870909  0.01274715  0.43833532    -0.40400
C847        C  0.54837290  0.02584527  0.41707790    -0.12600
C848        C  0.56663765  0.99730679  0.43723301     0.04400
C849        C  0.57599003  0.28872009  0.42564303    -0.07900
C850        C  0.56922466  0.27810897  0.39463066    -0.08700
C851        C  0.55223158  0.30727000  0.37431960    -0.03200
C852        C  0.54206144  0.01539505  0.38618442     0.03600
N853        N  0.52732601  0.04779036  0.36676302     0.66100
H854        H  0.54121051  0.05779641  0.42480558     0.15000
H855        H  0.57768340  0.24675990  0.38635953     0.14700
N856        N  0.59386151  0.25769241  0.44491560     0.73800
O857        O  0.48792014  0.06013536  0.36961270    -0.39600
O858        O  0.55567867  0.07138291  0.35395269    -0.39600
O859        O  0.56847819  0.22975229  0.45582683    -0.40300
O860        O  0.63506800  0.25186915  0.44450062    -0.40400
C861        C  0.36880068  0.31686876  0.09646247    -0.12600
C862        C  0.35281644  0.27943267  0.08269044     0.04400
C863        C  0.32352251  0.25390768  0.10005514    -0.07900
C864        C  0.31716989  0.26244347  0.13149430    -0.08700
C865        C  0.33961714  0.29592576  0.14634692    -0.03200
C866        C  0.36280013  0.32524521  0.12790021     0.03600
N867        N  0.37640061  0.03097143  0.14068229     0.66100
H868        H  0.38972483  0.33820020  0.08338009     0.15000
H869        H  0.29721420  0.24040905  0.14463429     0.14700
N870        N  0.30229880  0.21760636  0.08693418     0.73800
O871        O  0.41721084  0.03399246  0.14581501    -0.39600
O872        O  0.35422608  0.06412558  0.13841208    -0.39600
O873        O  0.31695902  0.18158602  0.09245586    -0.40300
O874        O  0.26316425  0.22079524  0.07789822    -0.40400
C875        C  0.48456351  0.12628640  0.12865927    -0.12600
C876        C  0.49521755  0.15631042  0.15155674     0.04400
C877        C  0.49726515  0.19917742  0.14373410    -0.07900
C878        C  0.48920718  0.21107186  0.11363862    -0.08700
C879        C  0.47808966  0.18121297  0.09076121    -0.03200
C880        C  0.47587806  0.13826013  0.09857978     0.03600
N881        N  0.46619458  0.10611539  0.07622649     0.66100
H882        H  0.48377494  0.09327292  0.13392221     0.15000
H883        H  0.48970941  0.24419147  0.10856360     0.14700
N884        N  0.50452352  0.23148186  0.16643301     0.73800
O885        O  0.49776853  0.08734263  0.06258159    -0.39600
O886        O  0.42817539  0.08937839  0.07624426    -0.39600
O887        O  0.54116841  0.25081213  0.16670172    -0.40300
O888        O  0.47166493  0.24734836  0.18060616    -0.40400
C889        C  0.51605649  0.04703917  0.59719260    -0.12600
C890        C  0.53946232  0.01418910  0.58222933     0.04400
C891        C  0.54443666  0.30798164  0.59775832    -0.07900
C892        C  0.52888122  0.30423924  0.62797304    -0.08700
C893        C  0.50895018  0.33812083  0.64398675    -0.03200
C894        C  0.50245160  0.04439069  0.62805198     0.03600
N895        N  0.48535271  0.08142756  0.64306740     0.66100
H896        H  0.51203364  0.07680054  0.58589979     0.15000
H897        H  0.53532155  0.27518189  0.63961297     0.14700
N898        N  0.56893090  0.27395970  0.58432020     0.73800
O899        O  0.51185751  0.10652804  0.65617526    -0.39600
O900        O  0.44790736  0.09461621  0.63578567    -0.39600
O901        O  0.60820833  0.26873618  0.59249073    -0.40300
O902        O  0.54818950  0.24354813  0.57208844    -0.40400
C903        C  0.38083577  0.32775304  0.89555575    -0.12600
C904        C  0.36747585  0.29627158  0.87442184     0.04400
C905        C  0.36034035  0.25504643  0.88511522    -0.07900
C906        C  0.36673611  0.24629536  0.91608067    -0.08700
C907        C  0.38136750  0.27747450  0.93702703    -0.03200
C908        C  0.38811368  0.31879988  0.92640197     0.03600
N909        N  0.40197027  0.35223893  0.94652513     0.66100
H910        H  0.38589825  0.35982309  0.88808614     0.15000
H911        H  0.36255400  0.21402251  0.92334746     0.14700
N912        N  0.68319163  0.22101433  0.86448894     0.73800
O913        O  0.44224995  0.36298942  0.94662007    -0.39600
O914        O  0.37342267  0.37728698  0.95763611    -0.39600
O915        O  0.71431993  0.20017637  0.85205434    -0.40300
O916        O  0.64454031  0.20570218  0.86467421    -0.40400
C917        C  0.67494248  0.07418239  0.61119661    -0.12600
C918        C  0.66670600  0.10430410  0.58903699     0.04400
C919        C  0.32924563  0.14676402  0.59869997    -0.07900
C920        C  0.32891934  0.15764903  0.63014530    -0.08700
C921        C  0.33343672  0.12693526  0.65251032    -0.03200
C922        C  0.34093819  0.08476953  0.64263631     0.03600
N923        N  0.34650485  0.05188769  0.66402483     0.66100
H924        H  0.67860108  0.04135142  0.60440600     0.15000
H925        H  0.32536168  0.19043404  0.63707187     0.14700
N926        N  0.32743257  0.17954781  0.57688939     0.73800
O927        O  0.64875505  0.02908520  0.67140644    -0.39600
O928        O  0.38490977  0.03886227  0.66893478    -0.39600
O929        O  0.62237831  0.18695416  0.56510453    -0.40300
O930        O  0.35918638  0.20549023  0.57474126    -0.40400
C931        C  0.54247162  0.20574386  0.89816353    -0.12600
C932        C  0.52677368  0.16858828  0.88391318     0.04400
C933        C  0.50719018  0.13734864  0.90270509    -0.07900
C934        C  0.49793404  0.14635740  0.93370176    -0.08700
C935        C  0.50798238  0.18584426  0.94682708    -0.03200
C936        C  0.53358770  0.21456023  0.92928857     0.03600
N937        N  0.54745007  0.25443139  0.94169170     0.66100
H938        H  0.55884233  0.22987552  0.88467385     0.15000
H939        H  0.47978047  0.12313870  0.94702873     0.14700
N940        N  0.49430287  0.09701818  0.89066400     0.73800
O941        O  0.58661766  0.25876193  0.95070392    -0.39600
O942        O  0.52545079  0.28679654  0.93611294    -0.39600
O943        O  0.52006490  0.06644203  0.89348272    -0.40300
O944        O  0.45380581  0.08960764  0.88647870    -0.40400
C945        C  0.52447265  0.49986780  0.84884208     0.79900
N946        N  0.49513713  0.47344983  0.83471042    -0.78500
C947        C  0.48946337  0.47518741  0.80401565     0.82300
N948        N  0.51288418  0.50355213  0.78750128    -0.78400
C949        C  0.54244408  0.52973752  0.80088662     0.82400
N950        N  0.54807032  0.52826370  0.83168039    -0.80100
C951        C  0.33247484  0.47351537  0.68453842     0.79900
N952        N  0.30812683  0.50687632  0.69552714    -0.78500
C953        C  0.31027171  0.51936380  0.72566057     0.82300
N954        N  0.33814302  0.49888938  0.74425743    -0.78400
C955        C  0.36244266  0.46559980  0.73344361     0.82400
N956        N  0.35920930  0.45307616  0.70373632    -0.80100
C957        C  0.36182999  0.64013834  0.84181912     0.79900
N958        N  0.38486181  0.34065412  0.82996096    -0.78500
C959        C  0.37882604  0.35302450  0.80073403     0.82300
N960        N  0.68171006  0.33267352  0.78332368    -0.78400
C961        C  0.65884825  0.63237980  0.79468838     0.82400
N962        N  0.66521182  0.61972411  0.82386203    -0.80100
C963        C  0.50493517  0.66999158  0.67825105     0.79900
N964        N  0.53094117  0.64227736  0.69285378    -0.78500
C965        C  0.53185817  0.64177026  0.72387006     0.82300
N966        N  0.50627135  0.66938479  0.74037077    -0.78400
C967        C  0.47929069  0.69656579  0.72630191     0.82400
N968        N  0.47925040  0.69733082  0.69515922    -0.80100
C969        C  0.56245834  0.61287062  0.74056242     0.86100
C970        C  0.59738911  0.63760226  0.75852190    -0.54100
C971        C  0.62358481  0.61336934  0.77588666     0.09000
C972        C  0.61260561  0.56591833  0.77358129     0.20000
C973        C  0.58921200  0.57978530  0.72142575    -0.54800
C974        C  0.61567803  0.55488592  0.73869360     0.09200
C975        C  0.53709526  0.58705030  0.76444034    -0.54400
C976        C  0.56294015  0.56260372  0.78183146     0.09700
H977        H  0.60075179  0.67166112  0.75781703     0.14200
H978        H  0.63356019  0.54616397  0.78795498     0.00000
H979        H  0.58707142  0.57615584  0.69670391     0.14500
H980        H  0.50119931  0.58665940  0.76648817     0.14300
C981        C  0.45811813  0.44665920  0.78714155     0.86100
C982        C  0.42293431  0.47103004  0.77048815    -0.54100
C983        C  0.39626945  0.44649621  0.75265291     0.09000
C984        C  0.40736587  0.39889466  0.75328508     0.20000
C985        C  0.43209006  0.41359985  0.80550616    -0.54800
C986        C  0.40528685  0.38833047  0.78785791     0.09200
C987        C  0.48305435  0.42124922  0.76230771    -0.54400
C988        C  0.45716580  0.39585531  0.74468581     0.09700
H989        H  0.42015111  0.50509471  0.77205576     0.14200
H990        H  0.38600057  0.37856610  0.73866917     0.00000
H991        H  0.43499898  0.41000861  0.82997471     0.14500
H992        H  0.51896002  0.42116906  0.76021842     0.14300
O993        O  0.42303142  0.61694587  0.98288277    -0.72100
O994        O  0.47667628  0.56571569  0.05074784    -0.72400
O995        O  0.49119928  0.56652111  0.98881218    -0.72200
O996        O  0.40882749  0.61686680  0.04463329    -0.72200
O997        O  0.36627724  0.56164240  0.04196891    -0.72200
O998        O  0.44632907  0.51348397  0.98257501    -0.72200
O999        O  0.43506180  0.51026998  0.04456228    -0.72200
O1000       O  0.37761044  0.56386228  0.97945264    -0.72300
V1001       V  0.44906456  0.59043040  0.01677474     1.35200
V1002       V  0.40707390  0.53837179  0.01221465     1.35200
C1003       C  0.39281340  0.59775424  0.96843776     0.77100
C1004       C  0.46389495  0.52992668  0.05995753     0.77200
C1005       C  0.48114968  0.53310078  0.97429781     0.77000
C1006       C  0.37530650  0.59688617  0.05459512     0.77000
O1007       O  0.56670942  0.38204297  0.47723407    -0.72100
O1008       O  0.62481293  0.43999075  0.54239266    -0.72400
O1009       O  0.63565881  0.43337533  0.48031870    -0.72200
O1010       O  0.55522234  0.38882059  0.53916202    -0.72200
O1011       O  0.59823531  0.33563106  0.54520624    -0.72200
O1012       O  0.67758664  0.37887031  0.48388704    -0.72200
O1013       O  0.66813522  0.38653509  0.54683610    -0.72200
O1014       O  0.60821798  0.32768056  0.48284044    -0.72300
V1015       V  0.59648204  0.40997100  0.50986893     1.35200
V1016       V  0.63737417  0.35826885  0.51466729     1.35200
C1017       C  0.57945321  0.34614623  0.46760882     0.77100
C1018       C  0.65421078  0.42166728  0.55715931     0.77200
C1019       C  0.66790556  0.41200510  0.46996087     0.77000
C1020       C  0.56421515  0.35614185  0.55368203     0.77000
C1021       C  0.50738542  0.47465590  0.18163954     0.79900
N1022       N  0.48779986  0.43918072  0.19330273    -0.78500
C1023       C  0.50138282  0.42393979  0.22039496     0.82300
N1024       N  0.53449847  0.44382352  0.23530372    -0.78400
C1025       C  0.55379481  0.47909260  0.22440395     0.82400
N1026       N  0.54018336  0.49472364  0.19752140    -0.80100
C1027       C  0.37164465  0.44280106  0.34249039     0.79900
N1028       N  0.34488349  0.46907395  0.32745447    -0.78500
C1029       C  0.34568591  0.46959839  0.29617883     0.82300
N1030       N  0.37321068  0.44343976  0.27982584    -0.78200
C1031       C  0.39999387  0.41720209  0.29459869     0.82400
N1032       N  0.39882281  0.41712844  0.32575739    -0.80100
C1033       C  0.34324931  0.62850463  0.18057446     0.79900
N1034       N  0.37591312  0.31846766  0.19467687    -0.78500
C1035       C  0.38606441  0.31096584  0.22424094     0.82300
N1036       N  0.69853246  0.27925785  0.23902435    -0.78400
C1037       C  0.66619546  0.58966941  0.22558663     0.82400
N1038       N  0.65545670  0.59760268  0.19635832    -0.80100
C1039       C  0.54642535  0.62683537  0.34109843     0.79900
N1040       N  0.51935276  0.64905732  0.32344571    -0.78500
C1041       C  0.51531400  0.64009891  0.29305426     0.82300
N1042       N  0.53907311  0.60827928  0.28000971    -0.78400
C1043       C  0.56588674  0.58507244  0.29738472     0.82400
N1044       N  0.56954702  0.59444472  0.32790667    -0.80100
C1045       C  0.64918811  0.49765228  0.27894284     0.86100
C1046       C  0.67442353  0.52780267  0.25790914    -0.54100
C1047       C  0.64783428  0.55310710  0.24162597     0.09000
C1048       C  0.59814004  0.54549228  0.24752948     0.20000
C1049       C  0.61936431  0.52626884  0.29901958    -0.54800
C1050       C  0.59293608  0.55167645  0.28267735     0.09200
C1051       C  0.61753776  0.47322044  0.25823384    -0.54400
C1052       C  0.59056929  0.49796970  0.24177986     0.09700
H1053       H  0.37678423  0.53063517  0.25742668     0.14200
H1054       H  0.57657586  0.56591626  0.23409595     0.00000
H1055       H  0.62015315  0.52757522  0.32381110     0.14500
H1056       H  0.61565770  0.43903136  0.25744713     0.14300
C1057       C  0.48554866  0.33305422  0.27410008     0.86100
C1058       C  0.50958178  0.36052674  0.25069811    -0.54100
C1059       C  0.48243449  0.38560651  0.23440040     0.09000
C1060       C  0.43270688  0.37932174  0.24259024     0.20000
C1061       C  0.45751120  0.36348759  0.29360420    -0.54800
C1062       C  0.42981688  0.38774438  0.27770939     0.09200
C1063       C  0.45213412  0.30741517  0.25577940    -0.54400
C1064       C  0.42425559  0.33122186  0.23918870     0.09700
H1065       H  0.54544511  0.36303461  0.24938350     0.14200
H1066       H  0.41007723  0.39885554  0.22930202     0.00000
H1067       H  0.45855639  0.36505911  0.31837329     0.14500
H1068       H  0.44950836  0.60643929  0.25622959     0.14300
C1069       C  0.67846202  0.46231139  0.42754315    -0.12600
C1070       C  0.68866822  0.42317360  0.43988130     0.04400
C1071       C  0.37605455  0.39269177  0.42058683    -0.07900
C1072       C  0.38257370  0.40077212  0.38934252    -0.08700
C1073       C  0.36884403  0.43860837  0.37653669    -0.03200
C1074       C  0.68489168  0.47020787  0.39626120     0.03600
N1075       N  0.67161925  0.50992902  0.38518564     0.66100
H1076       H  0.66274660  0.48638552  0.44195310     0.15000
H1077       H  0.39648361  0.37596065  0.37472667     0.14700
N1078       N  0.38799698  0.35234162  0.43137272     0.73800
O1079       O  0.63114499  0.51584494  0.38069757    -0.39600
O1080       O  0.69705392  0.54136373  0.38844515    -0.39600
O1081       O  0.36365662  0.32088811  0.42531570    -0.40300
O1082       O  0.42728335  0.34649376  0.43928520    -0.40400
C1083       C  0.54614370  0.35772627  0.41721839    -0.12600
C1084       C  0.56517030  0.32940613  0.43717241     0.04400
C1085       C  0.57440824  0.61941792  0.42550591    -0.07900
C1086       C  0.56748509  0.60898977  0.39448752    -0.08700
C1087       C  0.55119047  0.63855947  0.37419634    -0.03200
C1088       C  0.54021307  0.34755342  0.38623546     0.03600
N1089       N  0.52454292  0.37984929  0.36710059     0.66100
H1090       H  0.53811804  0.38938077  0.42517226     0.15000
H1091       H  0.57534271  0.57749846  0.38616877     0.14700
N1092       N  0.59175297  0.58813323  0.44479603     0.73800
O1093       O  0.48495839  0.39151522  0.37036369    -0.39600
O1094       O  0.55223543  0.40407604  0.35424596    -0.39600
O1095       O  0.56622802  0.55972939  0.45489407    -0.40300
O1096       O  0.63300173  0.58276856  0.44523307    -0.40400
C1097       C  0.36760890  0.65018426  0.09668509    -0.12600
C1098       C  0.35215126  0.61242979  0.08307285     0.04400
C1099       C  0.32315038  0.58670486  0.10049729    -0.07900
C1100       C  0.31673273  0.59534178  0.13189726    -0.08700
C1101       C  0.33861932  0.62928281  0.14660222    -0.03200
C1102       C  0.36123627  0.65882068  0.12806269     0.03600
N1103       N  0.38292492  0.36234344  0.14069377     0.66100
H1104       H  0.38818155  0.67169143  0.08351163     0.15000
H1105       H  0.29715860  0.57311123  0.14510983     0.14700
N1106       N  0.30224126  0.55017488  0.08745991     0.73800
O1107       O  0.42371740  0.36225653  0.14615910    -0.39600
O1108       O  0.36362883  0.39710829  0.13842281    -0.39600
O1109       O  0.31660247  0.51425070  0.09358878    -0.40300
O1110       O  0.26346102  0.55325518  0.07773783    -0.40400
C1111       C  0.48587162  0.45900812  0.12757119    -0.12600
C1112       C  0.49618669  0.48905790  0.15054041     0.04400
C1113       C  0.49809142  0.53194674  0.14276565    -0.07900
C1114       C  0.48979472  0.54388484  0.11273414    -0.08700
C1115       C  0.47872265  0.51404442  0.08984737    -0.03200
C1116       C  0.47713649  0.47103330  0.09750233     0.03600
N1117       N  0.46825639  0.43890982  0.07496305     0.66100
H1118       H  0.48539969  0.42599446  0.13276954     0.15000
H1119       H  0.49001196  0.57701279  0.10774057     0.14700
N1120       N  0.50542404  0.56425180  0.16545164     0.73800
O1121       O  0.50030625  0.42106665  0.06117867    -0.39600
O1122       O  0.43068602  0.42127337  0.07487907    -0.39600
O1123       O  0.54188258  0.58391475  0.16541374    -0.40300
O1124       O  0.47261829  0.57990976  0.17981209    -0.40400
C1125       C  0.51362527  0.37785335  0.59682526    -0.12600
C1126       C  0.53861116  0.34583085  0.58214135     0.04400
C1127       C  0.53938130  0.63916312  0.59738904    -0.07900
C1128       C  0.52517014  0.63676855  0.62802971    -0.08700
C1129       C  0.50866623  0.67212826  0.64426512    -0.03200
C1130       C  0.49946507  0.37480195  0.62756301     0.03600
N1131       N  0.47988609  0.41096811  0.64221104     0.66100
H1132       H  0.50848275  0.40732306  0.58539083     0.15000
H1133       H  0.52975470  0.60739796  0.63973307     0.14700
N1134       N  0.56004565  0.60327267  0.58335559     0.73800
O1135       O  0.50460653  0.43808549  0.65492010    -0.39600
O1136       O  0.44125525  0.42119147  0.63524684    -0.39600
O1137       O  0.59719201  0.59227445  0.59281255    -0.40300
O1138       O  0.53652286  0.57671508  0.56904699    -0.40400
C1139       C  0.38108523  0.66061918  0.89550028    -0.12600
C1140       C  0.36689018  0.62916743  0.87462978     0.04400
C1141       C  0.35808095  0.58841508  0.88573335    -0.07900
C1142       C  0.36370470  0.58011393  0.91684409    -0.08700
C1143       C  0.37942838  0.61116868  0.93748904    -0.03200
C1144       C  0.38780350  0.65204016  0.92644467     0.03600
N1145       N  0.40322005  0.68532112  0.94614158     0.66100
H1146       H  0.38746701  0.69235697  0.88772726     0.15000
H1147       H  0.35828134  0.54813229  0.92442749     0.14700
N1148       N  0.68069853  0.55420816  0.86551805     0.73800
O1149       O  0.44399217  0.69416024  0.94619557    -0.39600
O1150       O  0.37598557  0.71212999  0.95658398    -0.39600
O1151       O  0.71147566  0.53231598  0.85367784    -0.40300
O1152       O  0.64172846  0.53967135  0.86572694    -0.40400
C1153       C  0.66565129  0.40622387  0.61143321    -0.12600
C1154       C  0.66550916  0.43651899  0.58854888     0.04400
C1155       C  0.33371689  0.47903372  0.59741519    -0.07900
C1156       C  0.33318348  0.49078904  0.62874385    -0.08700
C1157       C  0.33202999  0.46028528  0.65161847    -0.03200
C1158       C  0.33352614  0.41729994  0.64254234     0.03600
N1159       N  0.33338318  0.38468729  0.66459004     0.66100
H1160       H  0.66327641  0.37303720  0.60523035     0.15000
H1161       H  0.33450583  0.52391982  0.63520227     0.14700
N1162       N  0.33958171  0.51081877  0.57500236     0.73800
O1163       O  0.62846956  0.36756213  0.67128916    -0.39600
O1164       O  0.36940325  0.36751726  0.67087050    -0.39600
O1165       O  0.64370269  0.52814615  0.56265347    -0.40300
O1166       O  0.37676857  0.52884201  0.57197015    -0.40400
C1167       C  0.54021807  0.53987000  0.89723564    -0.12600
C1168       C  0.52504024  0.50251464  0.88300885     0.04400
C1169       C  0.50512663  0.47136722  0.90173362    -0.07900
C1170       C  0.49557940  0.48043475  0.93268203    -0.08700
C1171       C  0.50557026  0.51991484  0.94583522    -0.03200
C1172       C  0.53092933  0.54879378  0.92828150     0.03600
N1173       N  0.54403674  0.58896646  0.94055322     0.66100
H1174       H  0.55650445  0.56405973  0.88376417     0.15000
H1175       H  0.47738651  0.45720757  0.94596791     0.14700
N1176       N  0.49213636  0.43108617  0.88965785     0.73800
O1177       O  0.58293057  0.59388694  0.94996272    -0.39600
O1178       O  0.52171391  0.62097105  0.93456855    -0.39600
O1179       O  0.51795660  0.40050252  0.89223127    -0.40300
O1180       O  0.45158549  0.42368687  0.88569323    -0.40400
C1181       C  0.52397368  0.83421885  0.84952665     0.79900
N1182       N  0.49462126  0.80762418  0.83553359    -0.78500
C1183       C  0.48873159  0.80925752  0.80484352     0.82300
N1184       N  0.51192457  0.83767336  0.78823330    -0.78400
C1185       C  0.54154939  0.86391536  0.80147160     0.82400
N1186       N  0.54742426  0.86255429  0.83223420    -0.80100
C1187       C  0.33150137  0.80512414  0.68538018     0.79900
N1188       N  0.30681355  0.83838720  0.69626664    -0.78500
C1189       C  0.30895843  0.85136742  0.72630221     0.82300
N1190       N  0.33706017  0.83133603  0.74500298    -0.78400
C1191       C  0.36160287  0.79809493  0.73436209     0.82400
N1192       N  0.35846541  0.78524579  0.70472238    -0.80100
C1193       C  0.36194056  0.97289692  0.84159508     0.79900
N1194       N  0.38540951  0.67310569  0.83017727    -0.78500
C1195       C  0.37975020  0.68554434  0.80094361     0.82300
N1196       N  0.68270329  0.66536182  0.78350154    -0.78400
C1197       C  0.65909423  0.96508192  0.79433966     0.82400
N1198       N  0.66550026  0.95223715  0.82347092    -0.80100
C1199       C  0.50590678  0.00425954  0.67816916     0.79900
N1200       N  0.53149917  0.97612691  0.69274061    -0.78500
C1201       C  0.53185295  0.97499731  0.72374241     0.82300
N1202       N  0.50612313  0.00247094  0.74027884    -0.78400
C1203       C  0.47944073  0.02998428  0.72625520     0.82400
N1204       N  0.47998820  0.03136286  0.69511887    -0.80100
C1205       C  0.56227315  0.94583418  0.74043826     0.86100
C1206       C  0.59773466  0.97040071  0.75802654    -0.54100
C1207       C  0.62371898  0.94615416  0.77553411     0.09000
C1208       C  0.61197918  0.89881955  0.77374318     0.20000
C1209       C  0.58840086  0.91197607  0.72151990    -0.54800
C1210       C  0.61462961  0.88700163  0.73896918     0.09200
C1211       C  0.53673150  0.92078186  0.76466185    -0.54400
C1212       C  0.56234060  0.89634962  0.78220659     0.09700
H1213       H  0.60150712  0.00440374  0.75704236     0.14200
H1214       H  0.63270721  0.87906492  0.78827096     0.00000
H1215       H  0.58603456  0.90793552  0.69683842     0.14500
H1216       H  0.50084521  0.92082548  0.76681308     0.14300
C1217       C  0.45775461  0.78033247  0.78795318     0.86100
C1218       C  0.42201540  0.80428085  0.77150184    -0.54100
C1219       C  0.39575920  0.77948020  0.75355790     0.09000
C1220       C  0.40781962  0.73210049  0.75385446     0.20000
C1221       C  0.43242155  0.74661307  0.80614647    -0.54800
C1222       C  0.40603043  0.72111758  0.78833612     0.09200
C1223       C  0.48308915  0.75559434  0.76291950    -0.54400
C1224       C  0.45763003  0.72999300  0.74516567     0.09700
H1225       H  0.41859805  0.83827475  0.77326086     0.14200
H1226       H  0.38679842  0.71158853  0.73912299     0.00000
H1227       H  0.43537467  0.74286396  0.83060490     0.14500
H1228       H  0.51899403  0.75607762  0.76080182     0.14300
O1229       O  0.42239128  0.95061864  0.98308466    -0.72100
O1230       O  0.47564455  0.90025380  0.05160000    -0.72400
O1231       O  0.49099399  0.90090849  0.98956986    -0.72200
O1232       O  0.40744596  0.95076404  0.04487804    -0.72200
O1233       O  0.36544558  0.89517911  0.04204389    -0.72200
O1234       O  0.44675637  0.84739976  0.98330738    -0.72200
O1235       O  0.43456191  0.84449753  0.04528776    -0.72200
O1236       O  0.37763839  0.89704301  0.97948566    -0.72300
V1237       V  0.44826895  0.92455268  0.01728424     1.35200
V1238       V  0.40684904  0.87210750  0.01260536     1.35200
C1239       C  0.39265786  0.93097929  0.96843454     0.77100
C1240       C  0.46293265  0.86446201  0.06089443     0.77200
C1241       C  0.48139562  0.86734093  0.97506934     0.77000
C1242       C  0.37409100  0.93045802  0.05476110     0.77000
O1243       O  0.56570189  0.71274686  0.47687765    -0.72100
O1244       O  0.62169728  0.77012472  0.54278185    -0.72400
O1245       O  0.63429200  0.76435078  0.48091947    -0.72200
O1246       O  0.55264123  0.71889010  0.53839014    -0.72200
O1247       O  0.59591047  0.66611216  0.54533476    -0.72200
O1248       O  0.67613186  0.70979218  0.48443006    -0.72200
O1249       O  0.66566925  0.71736566  0.54750177    -0.72200
O1250       O  0.60688524  0.65825954  0.48291754    -0.72300
V1251       V  0.59451172  0.74042093  0.50984532     1.35200
V1252       V  0.63551218  0.68891204  0.51500185     1.35200
C1253       C  0.57841770  0.67680410  0.46745124     0.77100
C1254       C  0.65112586  0.75231869  0.55779747     0.77200
C1255       C  0.66670473  0.74316158  0.47064935     0.77000
C1256       C  0.56156286  0.68654091  0.55326585     0.77000
C1257       C  0.50650178  0.80917930  0.18282932     0.79900
N1258       N  0.48709224  0.77348632  0.19429212    -0.78500
C1259       C  0.50096100  0.75777253  0.22115955     0.82300
N1260       N  0.53416875  0.77745661  0.23610456    -0.78400
C1261       C  0.55328464  0.81297290  0.22546740     0.82400
N1262       N  0.53939822  0.82904582  0.19877036    -0.80100
C1263       C  0.37188651  0.77591942  0.34307419     0.79900
N1264       N  0.34510836  0.80232084  0.32812043    -0.78500
C1265       C  0.34567060  0.80281694  0.29682374     0.82300
N1266       N  0.37296521  0.77651073  0.28039895    -0.78200
C1267       C  0.39972884  0.75014202  0.29507997     0.82400
N1268       N  0.39880291  0.75010755  0.32623713    -0.80100
C1269       C  0.34280591  0.96167449  0.18092350     0.79900
N1270       N  0.37534867  0.65195910  0.19473569    -0.78500
C1271       C  0.38571608  0.64441801  0.22426407     0.82300
N1272       N  0.69824822  0.61277678  0.23916550    -0.78400
C1273       C  0.66601808  0.92290486  0.22626900     0.82400
N1274       N  0.65483027  0.93073210  0.19711238    -0.80100
C1275       C  0.54756078  0.96219185  0.34164792     0.79900
N1276       N  0.52009926  0.98391711  0.32391798    -0.78500
C1277       C  0.51541056  0.97402096  0.29369060     0.82300
N1278       N  0.53894708  0.94189610  0.28091732    -0.78400
C1279       C  0.56611451  0.91920766  0.29836225     0.82400
N1280       N  0.57040628  0.92942647  0.32870396    -0.80100
C1281       C  0.64887147  0.83126931  0.28008751     0.86100
C1282       C  0.67415442  0.86125667  0.25891747    -0.54100
C1283       C  0.64760868  0.88658931  0.24260995     0.09000
C1284       C  0.59792469  0.87919411  0.24863818     0.20000
C1285       C  0.61928311  0.86010816  0.30016759    -0.54800
C1286       C  0.59291094  0.88554454  0.28379218     0.09200
C1287       C  0.61697926  0.80690924  0.25946120    -0.54400
C1288       C  0.59008220  0.83171364  0.24296940     0.09700
H1289       H  0.37679634  0.86369986  0.25787785     0.14200
H1290       H  0.57641761  0.89966424  0.23519768     0.00000
H1291       H  0.62021315  0.86154703  0.32496743     0.14500
H1292       H  0.61497358  0.77272703  0.25870863     0.14300
C1293       C  0.48520532  0.66596188  0.27412705     0.86100
C1294       C  0.50927513  0.69389786  0.25102879    -0.54100
C1295       C  0.48211893  0.71918672  0.23489390     0.09000
C1296       C  0.43237630  0.71264136  0.24291489     0.20000
C1297       C  0.45697531  0.69605442  0.29383603    -0.54800
C1298       C  0.42934794  0.72057581  0.27807877     0.09200
C1299       C  0.45195741  0.64055981  0.25552724    -0.54400
C1300       C  0.42405709  0.66455728  0.23910978     0.09700
H1301       H  0.54513407  0.69650586  0.24980875     0.14200
H1302       H  0.40975785  0.73233839  0.22974463     0.00000
H1303       H  0.45793086  0.69728884  0.31861518     0.14500
H1304       H  0.44966257  0.93974013  0.25673778     0.14300
C1305       C  0.67773848  0.79428979  0.42870479    -0.12600
C1306       C  0.68793499  0.75495539  0.44079188     0.04400
C1307       C  0.37632791  0.72530053  0.42104470    -0.07900
C1308       C  0.38301173  0.73366620  0.38984373    -0.08700
C1309       C  0.36929362  0.77160359  0.37714956    -0.03200
C1310       C  0.68448715  0.80273487  0.39750690     0.03600
N1311       N  0.67132054  0.84265563  0.38670173     0.66100
H1312       H  0.66177047  0.81808612  0.44322676     0.15000
H1313       H  0.39693957  0.70894880  0.37515304     0.14700
N1314       N  0.38814324  0.68482428  0.43166199     0.73800
O1315       O  0.63082338  0.84895196  0.38254042    -0.39600
O1316       O  0.69713623  0.87385000  0.38973999    -0.39600
O1317       O  0.36292536  0.65374257  0.42637145    -0.40300
O1318       O  0.42775185  0.67836730  0.43855226    -0.40400
C1319       C  0.54571764  0.68890168  0.41708799    -0.12600
C1320       C  0.56426107  0.66024432  0.43700586     0.04400
C1321       C  0.57642288  0.95625837  0.42600100    -0.07900
C1322       C  0.56929309  0.94539745  0.39508311    -0.08700
C1323       C  0.55293792  0.97466806  0.37459253    -0.03200
C1324       C  0.53981218  0.67897819  0.38611756     0.03600
N1325       N  0.52503338  0.71167698  0.36698531     0.66100
H1326       H  0.53814206  0.72067279  0.42504422     0.15000
H1327       H  0.57693180  0.91373909  0.38702765     0.14700
N1328       N  0.59353547  0.92510537  0.44550075     0.73800
O1329       O  0.48572794  0.72418742  0.37016124    -0.39600
O1330       O  0.55337807  0.73538199  0.35428014    -0.39600
O1331       O  0.56756550  0.89766021  0.45643463    -0.40300
O1332       O  0.63463491  0.91870452  0.44537724    -0.40400
C1333       C  0.36532294  0.98381011  0.09680628    -0.12600
C1334       C  0.35079458  0.94561819  0.08331949     0.04400
C1335       C  0.32279944  0.91921411  0.10097322    -0.07900
C1336       C  0.31663234  0.92775607  0.13240717    -0.08700
C1337       C  0.33771828  0.96229588  0.14695534    -0.03200
C1338       C  0.35908927  0.99239513  0.12823113     0.03600
N1339       N  0.38006391  0.69662235  0.14070975     0.66100
H1340       H  0.38501324  0.00582557  0.08345453     0.15000
H1341       H  0.29797377  0.90500175  0.14575756     0.14700
N1342       N  0.30285632  0.88204259  0.08815926     0.73800
O1343       O  0.42094272  0.69809455  0.14585708    -0.39600
O1344       O  0.35917503  0.73058843  0.13879163    -0.39600
O1345       O  0.31873858  0.84662817  0.09403200    -0.40300
O1346       O  0.26363612  0.88383187  0.07904868    -0.40400
C1347       C  0.48383534  0.79384473  0.12895306    -0.12600
C1348       C  0.49513997  0.82379670  0.15175247     0.04400
C1349       C  0.49773132  0.86661428  0.14378126    -0.07900
C1350       C  0.48924743  0.87851426  0.11372487    -0.08700
C1351       C  0.47741032  0.84871413  0.09097962    -0.03200
C1352       C  0.47496112  0.80580564  0.09889372     0.03600
N1353       N  0.46501776  0.77363334  0.07661887     0.66100
H1354       H  0.48272449  0.76087848  0.13425680     0.15000
H1355       H  0.49014779  0.91159086  0.10857105     0.14700
N1356       N  0.50623465  0.89891929  0.16625422     0.73800
O1357       O  0.49643629  0.75411178  0.06338725    -0.39600
O1358       O  0.42667275  0.75761456  0.07638046    -0.39600
O1359       O  0.54370569  0.91673231  0.16647926    -0.40300
O1360       O  0.47400798  0.91647347  0.18004075    -0.40400
C1361       C  0.51399655  0.71107785  0.59688362    -0.12600
C1362       C  0.53582402  0.67733233  0.58182237     0.04400
C1363       C  0.54424469  0.97613155  0.59771179    -0.07900
C1364       C  0.52902336  0.97273166  0.62801746    -0.08700
C1365       C  0.51058846  0.00719901  0.64424365    -0.03200
C1366       C  0.50133108  0.70932631  0.62792728     0.03600
N1367       N  0.48637290  0.74722732  0.64292042     0.66100
H1368       H  0.51087028  0.74090654  0.58552063     0.15000
H1369       H  0.53446885  0.94336409  0.63952478     0.14700
N1370       N  0.56711133  0.94137231  0.58390324     0.73800
O1371       O  0.51411292  0.77047987  0.65653786    -0.39600
O1372       O  0.45027215  0.76289697  0.63511645    -0.39600
O1373       O  0.60615957  0.93436706  0.59183595    -0.40300
O1374       O  0.54499364  0.91218860  0.57129158    -0.40400
C1375       C  0.37993502  0.99364701  0.89543107    -0.12600
C1376       C  0.36704477  0.96188591  0.87438789     0.04400
C1377       C  0.35971286  0.92080230  0.88527917    -0.07900
C1378       C  0.36539447  0.91249597  0.91640461    -0.08700
C1379       C  0.37961356  0.94397834  0.93728089    -0.03200
C1380       C  0.38664538  0.98512890  0.92639240     0.03600
N1381       N  0.40057587  0.01879382  0.94628639     0.66100
H1382       H  0.38524360  0.02560365  0.88778217     0.15000
H1383       H  0.36111017  0.88032280  0.92385932     0.14700
N1384       N  0.68357490  0.88613068  0.86474057     0.73800
O1385       O  0.44104560  0.02879369  0.94678026    -0.39600
O1386       O  0.37229311  0.04482207  0.95640597    -0.39600
O1387       O  0.71515944  0.86487560  0.85333664    -0.40300
O1388       O  0.64486560  0.87100250  0.86413670    -0.40400
C1389       C  0.67405757  0.73914191  0.61096644    -0.12600
C1390       C  0.66287093  0.76850129  0.58893491     0.04400
C1391       C  0.32326888  0.81126599  0.59862589    -0.07900
C1392       C  0.32369682  0.82224954  0.63001937    -0.08700
C1393       C  0.33173620  0.79213295  0.65225839    -0.03200
C1394       C  0.34191683  0.75052731  0.64216391     0.03600
N1395       N  0.35036694  0.71803179  0.66335032     0.66100
H1396       H  0.67962669  0.70657380  0.60415290     0.15000
H1397       H  0.31764811  0.85467432  0.63699395     0.14700
N1398       N  0.31642860  0.84356176  0.57704460     0.73800
O1399       O  0.65292745  0.69246866  0.67091080    -0.39600
O1400       O  0.38979332  0.70785002  0.66804102    -0.39600
O1401       O  0.60978788  0.84827475  0.56751715    -0.40300
O1402       O  0.34565105  0.87177799  0.57343198    -0.40400
C1403       C  0.54006791  0.87441370  0.89783092    -0.12600
C1404       C  0.52494161  0.83696675  0.88368526     0.04400
C1405       C  0.50560340  0.80567642  0.90252367    -0.07900
C1406       C  0.49628675  0.81470151  0.93350990    -0.08700
C1407       C  0.50596998  0.85430341  0.94660125    -0.03200
C1408       C  0.53099770  0.88332304  0.92892868     0.03600
N1409       N  0.54416890  0.92349417  0.94117682     0.66100
H1410       H  0.55620267  0.89861685  0.88427499     0.15000
H1411       H  0.47848811  0.79130708  0.94689078     0.14700
N1412       N  0.49320264  0.76517458  0.89054849     0.73800
O1413       O  0.58340467  0.92862865  0.94986630    -0.39600
O1414       O  0.52142432  0.95539354  0.93562304    -0.39600
O1415       O  0.51953136  0.73498610  0.89311289    -0.40300
O1416       O  0.45277680  0.75719415  0.88653398    -0.40400
C1417       C  0.85868132  0.16616689  0.84979085     0.79900
N1418       N  0.82911919  0.13975335  0.83583128    -0.78500
C1419       C  0.82272094  0.14184163  0.80522649     0.82300
N1420       N  0.84561180  0.17052251  0.78866842    -0.78400
C1421       C  0.87540441  0.19663872  0.80184349     0.82400
N1422       N  0.88181332  0.19480836  0.83253633    -0.80100
C1423       C  0.66639567  0.13957926  0.68562393     0.79900
N1424       N  0.64155818  0.17268446  0.69654419    -0.78500
C1425       C  0.64318488  0.18520825  0.72669471     0.82300
N1426       N  0.67098135  0.16490949  0.74547436    -0.78400
C1427       C  0.69566862  0.13179028  0.73475654     0.82400
N1428       N  0.69300673  0.11938295  0.70500515    -0.80100
C1429       C  0.69481699  0.30768222  0.84169350     0.79900
N1430       N  0.71894983  0.00570619  0.83001951    -0.78500
C1431       C  0.71327536  0.01833901  0.80083810     0.82300
N1432       N  0.01614550  0.99827974  0.78324567    -0.78400
C1433       C  0.99145594  0.29966983  0.79470331     0.82400
N1434       N  0.99824860  0.28706912  0.82384316    -0.80100
C1435       C  0.83728023  0.33525670  0.67806053     0.79900
N1436       N  0.86333729  0.30772047  0.69284848    -0.78500
C1437       C  0.86417782  0.30739131  0.72387200     0.82300
N1438       N  0.83852389  0.33510638  0.74021220    -0.78400
C1439       C  0.81149286  0.36211945  0.72601007     0.82400
N1440       N  0.81145846  0.36263217  0.69485017    -0.80100
C1441       C  0.89500144  0.27883068  0.74076787     0.86100
C1442       C  0.92997129  0.30397869  0.75841153    -0.54100
C1443       C  0.95629622  0.28017435  0.77600210     0.09000
C1444       C  0.94540946  0.23264766  0.77420427     0.20000
C1445       C  0.92177196  0.24540798  0.72193290    -0.54800
C1446       C  0.94837461  0.22088096  0.73941701     0.09200
C1447       C  0.86981538  0.25343746  0.76498261    -0.54400
C1448       C  0.89577545  0.22939398  0.78259706     0.09700
H1449       H  0.93321305  0.33802083  0.75736986     0.14200
H1450       H  0.96646579  0.21323709  0.78875118     0.00000
H1451       H  0.91954102  0.24130427  0.69724762     0.14500
H1452       H  0.83392281  0.25296302  0.76706685     0.14300
C1453       C  0.79157110  0.11312006  0.78831457     0.86100
C1454       C  0.75584987  0.13734466  0.77206628    -0.54100
C1455       C  0.72952368  0.11281667  0.75399709     0.09000
C1456       C  0.74146074  0.06537756  0.75398572     0.20000
C1457       C  0.76618563  0.07923557  0.80632694    -0.54800
C1458       C  0.73966542  0.05399699  0.78839237     0.09200
C1459       C  0.81679279  0.08861313  0.76311383    -0.54400
C1460       C  0.79126854  0.06325546  0.74524085     0.09700
H1461       H  0.75256730  0.17134222  0.77398536     0.14200
H1462       H  0.72036884  0.04509105  0.73914510     0.00000
H1463       H  0.76918311  0.07520779  0.83075193     0.14500
H1464       H  0.85269732  0.08904064  0.76096871     0.14300
O1465       O  0.75803168  0.28331033  0.98253626    -0.72100
O1466       O  0.81014299  0.23264074  0.05134643    -0.72400
O1467       O  0.82606074  0.23283715  0.98947653    -0.72200
O1468       O  0.74263104  0.28381183  0.04421643    -0.72200
O1469       O  0.70008048  0.22859918  0.04152714    -0.72200
O1470       O  0.78118482  0.17985002  0.98304138    -0.72200
O1471       O  0.76860922  0.17719637  0.04494593    -0.72200
O1472       O  0.71257191  0.23026299  0.97899822    -0.72300
V1473       V  0.78335334  0.25707263  0.01688408     1.35200
V1474       V  0.74136705  0.20504173  0.01218689     1.35200
C1475       C  0.72792438  0.26409115  0.96797007     0.77100
C1476       C  0.79706067  0.19695363  0.06060741     0.77200
C1477       C  0.81625761  0.19928685  0.97503810     0.77000
C1478       C  0.70904613  0.26388085  0.05413003     0.77000
O1479       O  0.90228663  0.05057669  0.47706144    -0.72100
O1480       O  0.95959745  0.10751954  0.54280028    -0.72400
O1481       O  0.97148750  0.10145509  0.48084652    -0.72200
O1482       O  0.88990848  0.05702682  0.53886059    -0.72200
O1483       O  0.93274606  0.00382131  0.54537917    -0.72200
O1484       O  0.01278124  0.04649204  0.48426089    -0.72200
O1485       O  0.00298657  0.05422470  0.54726000    -0.72200
O1486       O  0.94300921  0.99575229  0.48301021    -0.72300
V1487       V  0.93172010  0.07804943  0.50998042     1.35200
V1488       V  0.97223245  0.02613193  0.51493973     1.35200
C1489       C  0.91462705  0.01449809  0.46760066     0.77100
C1490       C  0.98888591  0.08926408  0.55767482     0.77200
C1491       C  0.00349050  0.07982197  0.47043530     0.77000
C1492       C  0.89874842  0.02453725  0.55360987     0.77000
C1493       C  0.83995350  0.14177263  0.18252566     0.79900
N1494       N  0.82057137  0.10619564  0.19416119    -0.78500
C1495       C  0.83455471  0.09071573  0.22106458     0.82300
N1496       N  0.86785291  0.11050628  0.23585577    -0.78400
C1497       C  0.88693521  0.14592448  0.22501118     0.82400
N1498       N  0.87293297  0.16175627  0.19828755    -0.80100
C1499       C  0.70552721  0.11002986  0.34276716     0.79900
N1500       N  0.67876865  0.13635615  0.32775248    -0.78500
C1501       C  0.67922749  0.13657092  0.29645490     0.82300
N1502       N  0.70637605  0.11006621  0.28009233    -0.78200
C1503       C  0.73308501  0.08376662  0.29486156     0.82400
N1504       N  0.73228156  0.08402934  0.32600628    -0.80100
C1505       C  0.67728048  0.29491871  0.18030705     0.79900
N1506       N  0.70846088  0.98496603  0.19490641    -0.78500
C1507       C  0.71918418  0.97746243  0.22441563     0.82300
N1508       N  0.03183416  0.94590493  0.23942038    -0.78400
C1509       C  0.99988177  0.25616239  0.22537853     0.82400
N1510       N  0.98938047  0.26397163  0.19605536    -0.80100
C1511       C  0.88071008  0.29482278  0.34109503     0.79900
N1512       N  0.85345993  0.31675108  0.32335773    -0.78500
C1513       C  0.84920172  0.30732751  0.29303148     0.82300
N1514       N  0.87291271  0.27539291  0.28014091    -0.78400
C1515       C  0.89992096  0.25250328  0.29756453     0.82400
N1516       N  0.90379938  0.26229030  0.32802114    -0.80100
C1517       C  0.98277843  0.16466096  0.27923702     0.86100
C1518       C  0.00797590  0.19445526  0.25789430    -0.54100
C1519       C  0.98139154  0.21970456  0.24154828     0.09000
C1520       C  0.93170137  0.21239267  0.24775676     0.20000
C1521       C  0.95330880  0.19362639  0.29928935    -0.54800
C1522       C  0.92685152  0.21896220  0.28291971     0.09200
C1523       C  0.95079964  0.14015834  0.25880201    -0.54400
C1524       C  0.92381596  0.16484201  0.24230380     0.09700
H1525       H  0.71033089  0.19709435  0.25725221     0.14200
H1526       H  0.91011692  0.23277122  0.23430386     0.00000
H1527       H  0.95431068  0.19516088  0.32408182     0.14500
H1528       H  0.94878918  0.10597365  0.25818795     0.14300
C1529       C  0.81850518  0.99950854  0.27453269     0.86100
C1530       C  0.84269278  0.02725528  0.25138132    -0.54100
C1531       C  0.81563699  0.05234660  0.23503004     0.09000
C1532       C  0.76585015  0.04583068  0.24289420     0.20000
C1533       C  0.79012944  0.02965999  0.29399581    -0.54800
C1534       C  0.76261202  0.05401742  0.27802976     0.09200
C1535       C  0.78538855  0.97389128  0.25589779    -0.54400
C1536       C  0.75758220  0.99771910  0.23922050     0.09700
H1537       H  0.87855527  0.02987410  0.25025178     0.14200
H1538       H  0.74332273  0.06544241  0.22958448     0.00000
H1539       H  0.79097432  0.03108599  0.31878881     0.14500
H1540       H  0.78309514  0.27313726  0.25655719     0.14300
C1541       C  0.01395682  0.13005959  0.42800127    -0.12600
C1542       C  0.02419442  0.09090670  0.44032520     0.04400
C1543       C  0.71112960  0.06038058  0.42095432    -0.07900
C1544       C  0.71740083  0.06840540  0.38968509    -0.08700
C1545       C  0.70330101  0.10611489  0.37685051    -0.03200
C1546       C  0.01967991  0.13776226  0.39663877     0.03600
N1547       N  0.00561756  0.17719789  0.38551271     0.66100
H1548       H  0.99846387  0.15420512  0.44247014     0.15000
H1549       H  0.73118494  0.04353334  0.37505851     0.14700
N1550       N  0.72249382  0.01980274  0.43162388     0.73800
O1551       O  0.96494050  0.18261173  0.38146719    -0.39600
O1552       O  0.03078447  0.20892611  0.38819092    -0.39600
O1553       O  0.69677257  0.98903176  0.42654500    -0.40300
O1554       O  0.76207115  0.01284878  0.43833265    -0.40400
C1555       C  0.88192708  0.02625733  0.41702576    -0.12600
C1556       C  0.90017894  0.99776332  0.43721754     0.04400
C1557       C  0.90939764  0.28821446  0.42548607    -0.07900
C1558       C  0.90265599  0.27768483  0.39445657    -0.08700
C1559       C  0.88555805  0.30685707  0.37419567    -0.03200
C1560       C  0.87550537  0.01569778  0.38615869     0.03600
N1561       N  0.86068336  0.04801911  0.36670691     0.66100
H1562       H  0.87483611  0.05824352  0.42470452     0.15000
H1563       H  0.91123210  0.24639255  0.38612861     0.14700
N1564       N  0.92747423  0.25720621  0.44468178     0.73800
O1565       O  0.82125184  0.06029038  0.36956030    -0.39600
O1566       O  0.88897241  0.07163665  0.35385556    -0.39600
O1567       O  0.90229109  0.22902258  0.45547638    -0.40300
O1568       O  0.96872791  0.25167501  0.44428848    -0.40400
C1569       C  0.70192311  0.31690144  0.09640857    -0.12600
C1570       C  0.68592889  0.27946883  0.08263878     0.04400
C1571       C  0.65662851  0.25395290  0.10000734    -0.07900
C1572       C  0.65030610  0.26247630  0.13145261    -0.08700
C1573       C  0.67278825  0.29593956  0.14630140    -0.03200
C1574       C  0.69595281  0.32526709  0.12784920     0.03600
N1575       N  0.70922023  0.03087745  0.14064225     0.66100
H1576       H  0.72283944  0.33823543  0.08332157     0.15000
H1577       H  0.63034738  0.24044936  0.14459863     0.14700
N1578       N  0.63535502  0.21768312  0.08687971     0.73800
O1579       O  0.75002603  0.03413293  0.14573347    -0.39600
O1580       O  0.68683757  0.06390109  0.13835999    -0.39600
O1581       O  0.64996483  0.18164107  0.09239313    -0.40300
O1582       O  0.59622387  0.22092567  0.07784826    -0.40400
C1583       C  0.81766660  0.12623671  0.12861865    -0.12600
C1584       C  0.82844775  0.15624538  0.15149601     0.04400
C1585       C  0.83055103  0.19910826  0.14366858    -0.07900
C1586       C  0.82243917  0.21101380  0.11358451    -0.08700
C1587       C  0.81120448  0.18117220  0.09072451    -0.03200
C1588       C  0.80892082  0.13822298  0.09855081     0.03600
N1589       N  0.79909983  0.10609247  0.07621689     0.66100
H1590       H  0.81682692  0.09322522  0.13388702     0.15000
H1591       H  0.82299767  0.24413231  0.10850687     0.14700
N1592       N  0.83792237  0.23140264  0.16635626     0.73800
O1593       O  0.83059162  0.08722521  0.06254885    -0.39600
O1594       O  0.76103006  0.08946024  0.07627475    -0.39600
O1595       O  0.87460606  0.25066702  0.16658534    -0.40300
O1596       O  0.80512587  0.24732626  0.18056604    -0.40400
C1597       C  0.85000957  0.04778126  0.59723789    -0.12600
C1598       C  0.87320921  0.01489850  0.58216623     0.04400
C1599       C  0.87742027  0.30734315  0.59793316    -0.07900
C1600       C  0.86181962  0.30376026  0.62815315    -0.08700
C1601       C  0.84181880  0.33770410  0.64405805    -0.03200
C1602       C  0.83644366  0.04502491  0.62810078     0.03600
N1603       N  0.81946004  0.08204233  0.64320819     0.66100
H1604       H  0.84610225  0.07761481  0.58602022     0.15000
H1605       H  0.86834413  0.27480470  0.63989841     0.14700
N1606       N  0.90222089  0.27337390  0.58469472     0.73800
O1607       O  0.84602413  0.10691296  0.65648188    -0.39600
O1608       O  0.78216753  0.09550575  0.63583334    -0.39600
O1609       O  0.94134767  0.26825198  0.59321709    -0.40300
O1610       O  0.88177472  0.24286594  0.57234467    -0.40400
C1611       C  0.71409453  0.32782113  0.89551930    -0.12600
C1612       C  0.70067773  0.29636289  0.87438455     0.04400
C1613       C  0.69347928  0.25514524  0.88507894    -0.07900
C1614       C  0.69987174  0.24638014  0.91604272    -0.08700
C1615       C  0.71456689  0.27753264  0.93698737    -0.03200
C1616       C  0.72137547  0.31885080  0.92636235     0.03600
N1617       N  0.73531046  0.35226549  0.94647988     0.66100
H1618       H  0.71920846  0.35988578  0.88805289     0.15000
H1619       H  0.69563558  0.21411266  0.92330854     0.14700
N1620       N  0.01672463  0.22113236  0.86452466     0.73800
O1621       O  0.77561870  0.36291435  0.94658212    -0.39600
O1622       O  0.70682717  0.37739718  0.95756820    -0.39600
O1623       O  0.04786842  0.20035874  0.85204873    -0.40300
O1624       O  0.97809999  0.20575741  0.86473864    -0.40400
C1625       C  0.00753087  0.07435793  0.61124964    -0.12600
C1626       C  0.00043521  0.10463493  0.58899397     0.04400
C1627       C  0.66199535  0.14680470  0.59875420    -0.07900
C1628       C  0.66179374  0.15759659  0.63020602    -0.08700
C1629       C  0.66704559  0.12691026  0.65249481    -0.03200
C1630       C  0.67521214  0.08489516  0.64251341     0.03600
N1631       N  0.68133835  0.05200494  0.66381061     0.66100
H1632       H  0.01046061  0.04143516  0.60451767     0.15000
H1633       H  0.65763261  0.19029062  0.63719713     0.14700
N1634       N  0.65898664  0.17959556  0.57704145     0.73800
O1635       O  0.97990475  0.02975141  0.67134792    -0.39600
O1636       O  0.71993809  0.03936590  0.66855321    -0.39600
O1637       O  0.95947273  0.18848703  0.56431138    -0.40300
O1638       O  0.68998651  0.20633222  0.57478467    -0.40400
C1639       C  0.87585547  0.20558919  0.89822570    -0.12600
C1640       C  0.86008228  0.16847659  0.88395638     0.04400
C1641       C  0.84037060  0.13728108  0.90273169    -0.07900
C1642       C  0.83108333  0.14630839  0.93372046    -0.08700
C1643       C  0.84118942  0.18577633  0.94685194    -0.03200
C1644       C  0.86690896  0.21443327  0.92933940     0.03600
N1645       N  0.88082124  0.25428429  0.94174863     0.66100
H1646       H  0.89232556  0.22968167  0.88475412     0.15000
H1647       H  0.81283973  0.12313056  0.94702915     0.14700
N1648       N  0.82733292  0.09700140  0.89067754     0.73800
O1649       O  0.91998197  0.25855335  0.95078666    -0.39600
O1650       O  0.85890020  0.28668459  0.93613354    -0.39600
O1651       O  0.85297042  0.06633055  0.89349856    -0.40300
O1652       O  0.78680631  0.08973484  0.88650193    -0.40400
C1653       C  0.85780771  0.49989571  0.84886451     0.79900
N1654       N  0.82840146  0.47352900  0.83474881    -0.78500
C1655       C  0.82269475  0.47528976  0.80405634     0.82300
N1656       N  0.84614788  0.50362127  0.78753610    -0.78400
C1657       C  0.87577039  0.52974929  0.80090716     0.82400
N1658       N  0.88143547  0.52825508  0.83169317    -0.80100
C1659       C  0.66591475  0.47399351  0.68449203     0.79900
N1660       N  0.64155228  0.50731576  0.69551516    -0.78500
C1661       C  0.64361931  0.51967368  0.72567778     0.82300
N1662       N  0.67143119  0.49912209  0.74426675    -0.78400
C1663       C  0.69575067  0.46586999  0.73341784     0.82400
N1664       N  0.69259008  0.45345575  0.70367882    -0.80100
C1665       C  0.69512751  0.64024274  0.84189347     0.79900
N1666       N  0.71801809  0.34081007  0.82994641    -0.78500
C1667       C  0.71199974  0.35318044  0.80071703     0.82300
N1668       N  0.01499286  0.33278501  0.78338632    -0.78400
C1669       C  0.99230307  0.63219943  0.79468252     0.82400
N1670       N  0.99863139  0.61952640  0.82385519    -0.80100
C1671       C  0.83832082  0.66998532  0.67829539     0.79900
N1672       N  0.86434045  0.64228346  0.69289794    -0.78500
C1673       C  0.86528258  0.64177370  0.72390799     0.82300
N1674       N  0.83970682  0.66938792  0.74041649    -0.78400
C1675       C  0.81270671  0.69655994  0.72635392     0.82400
N1676       N  0.81263487  0.69731891  0.69520882    -0.80100
C1677       C  0.89586681  0.61283544  0.74057847     0.86100
C1678       C  0.93085245  0.63751780  0.75851955    -0.54100
C1679       C  0.95702105  0.61324487  0.77587489     0.09000
C1680       C  0.94596494  0.56581281  0.77357883     0.20000
C1681       C  0.92255291  0.57970023  0.72143226    -0.54800
C1682       C  0.94899635  0.55476590  0.73869380     0.09200
C1683       C  0.87048391  0.58705800  0.76446690    -0.54400
C1684       C  0.89630367  0.56257818  0.78184723     0.09700
H1685       H  0.93426333  0.67157287  0.75781659     0.14200
H1686       H  0.96689426  0.54603045  0.78794988     0.00000
H1687       H  0.92039079  0.57606993  0.69671167     0.14500
H1688       H  0.83458888  0.58671926  0.76653058     0.14300
C1689       C  0.79131936  0.44679964  0.78717495     0.86100
C1690       C  0.75618394  0.47120921  0.77050519    -0.54100
C1691       C  0.72951672  0.44670811  0.75264708     0.09000
C1692       C  0.74054822  0.39909392  0.75328656     0.20000
C1693       C  0.76523856  0.41376654  0.80552546    -0.54800
C1694       C  0.73843268  0.38852009  0.78786115     0.09200
C1695       C  0.81624682  0.42136801  0.76234707    -0.54400
C1696       C  0.79034719  0.39600677  0.74470675     0.09700
H1697       H  0.75344214  0.50527745  0.77207283     0.14200
H1698       H  0.71917437  0.37879100  0.73865860     0.00000
H1699       H  0.76813407  0.41016135  0.82999484     0.14500
H1700       H  0.85215406  0.42124113  0.76028075     0.14300
O1701       O  0.75672283  0.61705921  0.98287929    -0.72100
O1702       O  0.81033051  0.56585274  0.05077287    -0.72400
O1703       O  0.82484165  0.56657575  0.98883790    -0.72200
O1704       O  0.74253444  0.61707074  0.04462763    -0.72200
O1705       O  0.69993515  0.56187643  0.04201163    -0.72200
O1706       O  0.77990029  0.51358826  0.98262222    -0.72200
O1707       O  0.76867172  0.51043249  0.04460544    -0.72200
O1708       O  0.71122938  0.56402449  0.97950466    -0.72300
V1709       V  0.78273858  0.59055921  0.01678627     1.35200
V1710       V  0.74069068  0.53853668  0.01226159     1.35200
C1711       C  0.72645939  0.59788805  0.96846507     0.77100
C1712       C  0.79753109  0.53007094  0.05998687     0.77200
C1713       C  0.81474395  0.53315962  0.97433565     0.77000
C1714       C  0.70899031  0.59713760  0.05460189     0.77000
O1715       O  0.89969660  0.38134325  0.47723053    -0.72100
O1716       O  0.95746133  0.43927267  0.54252271    -0.72400
O1717       O  0.96849645  0.43282227  0.48047201    -0.72200
O1718       O  0.88802182  0.38795999  0.53914607    -0.72200
O1719       O  0.93117926  0.33489724  0.54526157    -0.72200
O1720       O  0.01051328  0.37837247  0.48398270    -0.72200
O1721       O  0.00096475  0.38595189  0.54694604    -0.72200
O1722       O  0.94126598  0.32703119  0.48286127    -0.72300
V1723       V  0.92930185  0.40925924  0.50993648     1.35200
V1724       V  0.97030810  0.35764355  0.51473756     1.35200
C1725       C  0.91253726  0.34548886  0.46758830     0.77100
C1726       C  0.98692655  0.42103923  0.55728091     0.77200
C1727       C  0.00079767  0.41153950  0.47010193     0.77000
C1728       C  0.89708908  0.35533462  0.55370371     0.77000
C1729       C  0.84086343  0.47467246  0.18165631     0.79900
N1730       N  0.82133223  0.43911821  0.19323240    -0.78500
C1731       C  0.83486541  0.42382400  0.22031899     0.82300
N1732       N  0.86787242  0.44374402  0.23531789    -0.78400
C1733       C  0.88710817  0.47909653  0.22450687     0.82400
N1734       N  0.87355225  0.49477147  0.19762417    -0.80100
C1735       C  0.70514241  0.44270088  0.34226357     0.79900
N1736       N  0.67837465  0.46894152  0.32720581    -0.78500
C1737       C  0.67917633  0.46941957  0.29592941     0.82300
N1738       N  0.70671468  0.44325062  0.27960015    -0.78200
C1739       C  0.73349929  0.41703970  0.29439802     0.82400
N1740       N  0.73232507  0.41700609  0.32555621    -0.80100
C1741       C  0.67673598  0.62867740  0.18055179     0.79900
N1742       N  0.70924925  0.31838222  0.19458196    -0.78500
C1743       C  0.71947996  0.31084547  0.22412428     0.82300
N1744       N  0.03187807  0.27929734  0.23900965    -0.78400
C1745       C  0.99939774  0.58967904  0.22574997     0.82400
N1746       N  0.98866447  0.59753643  0.19651033    -0.80100
C1747       C  0.87961183  0.62693737  0.34124187     0.79900
N1748       N  0.85257030  0.64917529  0.32358321    -0.78500
C1749       C  0.84853643  0.64021990  0.29319434     0.82300
N1750       N  0.87227343  0.60837726  0.28015519    -0.78400
C1751       C  0.89905643  0.58514868  0.29754201     0.82400
N1752       N  0.90270844  0.59452484  0.32806294    -0.80100
C1753       C  0.98236181  0.49771473  0.27915678     0.86100
C1754       C  0.00760892  0.52786746  0.25813079    -0.54100
C1755       C  0.98102805  0.55315725  0.24183047     0.09000
C1756       C  0.93133149  0.54553047  0.24770992     0.20000
C1757       C  0.95251512  0.52633013  0.29921642    -0.54800
C1758       C  0.92609382  0.55172713  0.28285483     0.09200
C1759       C  0.95073984  0.47326994  0.25843681    -0.54400
C1760       C  0.92378562  0.49800379  0.24196294     0.09700
H1761       H  0.71028392  0.53053343  0.25723379     0.14200
H1762       H  0.90977591  0.56594409  0.23426162     0.00000
H1763       H  0.95330495  0.52765970  0.32400877     0.14500
H1764       H  0.94889032  0.43907964  0.25764036     0.14300
C1765       C  0.81903268  0.33286136  0.27393315     0.86100
C1766       C  0.84307899  0.36032551  0.25052723    -0.54100
C1767       C  0.81593913  0.38542022  0.23423350     0.09000
C1768       C  0.76621299  0.37914510  0.24242025     0.20000
C1769       C  0.79101105  0.36331425  0.29343464    -0.54800
C1770       C  0.76332525  0.38757254  0.27753274     0.09200
C1771       C  0.78560208  0.30723491  0.25561362    -0.54400
C1772       C  0.75773329  0.33105463  0.23902556     0.09700
H1773       H  0.87894201  0.36284699  0.24922899     0.14200
H1774       H  0.74359052  0.39868301  0.22912910     0.00000
H1775       H  0.79206329  0.36490367  0.31820301     0.14500
H1776       H  0.78277857  0.60657691  0.25633865     0.14300
C1777       C  0.01116668  0.46196577  0.42773997    -0.12600
C1778       C  0.02159014  0.42286756  0.44005794     0.04400
C1779       C  0.70953551  0.39281933  0.42043445    -0.07900
C1780       C  0.71593794  0.40073985  0.38915822    -0.08700
C1781       C  0.70237793  0.43860290  0.37631263    -0.03200
C1782       C  0.01762730  0.46995780  0.39647440     0.03600
N1783       N  0.00401433  0.50957993  0.38541449     0.66100
H1784       H  0.99523320  0.48591581  0.44214440     0.15000
H1785       H  0.72964087  0.37580733  0.37455794     0.14700
N1786       N  0.72135617  0.35247047  0.43128710     0.73800
O1787       O  0.96348259  0.51519511  0.38094253    -0.39600
O1788       O  0.02919907  0.54119891  0.38866272    -0.39600
O1789       O  0.69688295  0.32107559  0.42533132    -0.40300
O1790       O  0.76063578  0.34652489  0.43917511    -0.40400
C1791       C  0.87927036  0.35714031  0.41718934    -0.12600
C1792       C  0.89839135  0.32881302  0.43709787     0.04400
C1793       C  0.90749609  0.61953782  0.42565517    -0.07900
C1794       C  0.90057930  0.60908950  0.39464187    -0.08700
C1795       C  0.88436794  0.63867486  0.37433060    -0.03200
C1796       C  0.87340609  0.34706413  0.38618338     0.03600
N1797       N  0.85765732  0.37938586  0.36710379     0.66100
H1798       H  0.87111162  0.38873856  0.42520068     0.15000
H1799       H  0.90838595  0.57757629  0.38634230     0.14700
N1800       N  0.92473752  0.58824172  0.44497990     0.73800
O1801       O  0.81805706  0.39098703  0.37040526    -0.39600
O1802       O  0.88529273  0.40367756  0.35425695    -0.39600
O1803       O  0.89912883  0.55991575  0.45509524    -0.40300
O1804       O  0.96597131  0.58279496  0.44545421    -0.40400
C1805       C  0.70144287  0.65041317  0.09671726    -0.12600
C1806       C  0.68583009  0.61275121  0.08305561     0.04400
C1807       C  0.65662592  0.58714700  0.10041342    -0.07900
C1808       C  0.65015329  0.59576495  0.13180955    -0.08700
C1809       C  0.67218581  0.62956770  0.14657603    -0.03200
C1810       C  0.69501595  0.65903189  0.12809190     0.03600
N1811       N  0.71608391  0.36236699  0.14063748     0.66100
H1812       H  0.72217963  0.67183852  0.08359230     0.15000
H1813       H  0.63040952  0.57361106  0.14497356     0.14700
N1814       N  0.63554179  0.55075392  0.08731114     0.73800
O1815       O  0.75687258  0.36226939  0.14611579    -0.39600
O1816       O  0.69681320  0.39713870  0.13833041    -0.39600
O1817       O  0.64967335  0.51473761  0.09342026    -0.40300
O1818       O  0.59681057  0.55406151  0.07754543    -0.40400
C1819       C  0.81945455  0.45909423  0.12756282    -0.12600
C1820       C  0.82973915  0.48911960  0.15055530     0.04400
C1821       C  0.83167345  0.53201824  0.14280189    -0.07900
C1822       C  0.82341341  0.54398644  0.11277166    -0.08700
C1823       C  0.81236370  0.51416809  0.08986598    -0.03200
C1824       C  0.81077514  0.47114839  0.09749465     0.03600
N1825       N  0.80196168  0.43904484  0.07492693     0.66100
H1826       H  0.81896303  0.42606996  0.13274242     0.15000
H1827       H  0.82363867  0.57712083  0.10779276     0.14700
N1828       N  0.83899967  0.56430307  0.16550409     0.73800
O1829       O  0.83405146  0.42131927  0.06110450    -0.39600
O1830       O  0.76444935  0.42129401  0.07485477    -0.39600
O1831       O  0.87548188  0.58392488  0.16550414    -0.40300
O1832       O  0.80618347  0.58000245  0.17982726    -0.40400
C1833       C  0.84638047  0.37711292  0.59675371    -0.12600
C1834       C  0.87147978  0.34507044  0.58217820     0.04400
C1835       C  0.87340980  0.63933065  0.59755519    -0.07900
C1836       C  0.85900979  0.63685725  0.62814212    -0.08700
C1837       C  0.84205622  0.67208987  0.64430287    -0.03200
C1838       C  0.83224544  0.37424495  0.62750848     0.03600
N1839       N  0.81261268  0.41046890  0.64204088     0.66100
H1840       H  0.84115145  0.40649297  0.58522215     0.15000
H1841       H  0.86394904  0.60758511  0.63989435     0.14700
N1842       N  0.89501394  0.60378079  0.58375470     0.73800
O1843       O  0.83730069  0.43775917  0.65458784    -0.39600
O1844       O  0.77390554  0.42050712  0.63512521    -0.39600
O1845       O  0.93269115  0.59411194  0.59303403    -0.40300
O1846       O  0.87213989  0.57626262  0.56988617    -0.40400
C1847       C  0.71450024  0.66074392  0.89554688    -0.12600
C1848       C  0.70027065  0.62927967  0.87469564     0.04400
C1849       C  0.69155871  0.58851571  0.88580175    -0.07900
C1850       C  0.69727758  0.58021938  0.91690227    -0.08700
C1851       C  0.71302614  0.61128867  0.93752715    -0.03200
C1852       C  0.72134057  0.65216472  0.92647611     0.03600
N1853       N  0.73683851  0.68544151  0.94614604     0.66100
H1854       H  0.72082999  0.69248634  0.88776631     0.15000
H1855       H  0.69191648  0.54823124  0.92448933     0.14700
N1856       N  0.01400162  0.55397574  0.86553399     0.73800
O1857       O  0.77762618  0.69421630  0.94617147    -0.39600
O1858       O  0.70966361  0.71229677  0.95660077    -0.39600
O1859       O  0.04477137  0.53202664  0.85374448    -0.40300
O1860       O  0.97501140  0.53949002  0.86570668    -0.40400
C1861       C  0.99893734  0.40575869  0.61153704    -0.12600
C1862       C  0.99828210  0.43601177  0.58863593     0.04400
C1863       C  0.66846063  0.47946528  0.59734968    -0.07900
C1864       C  0.66768198  0.49127997  0.62867701    -0.08700
C1865       C  0.66544664  0.46081373  0.65157222    -0.03200
C1866       C  0.66598570  0.41780214  0.64254407     0.03600
N1867       N  0.66488434  0.38523618  0.66463313     0.66100
H1868       H  0.99685515  0.37254717  0.60536328     0.15000
H1869       H  0.66984182  0.52437804  0.63512660     0.14700
N1870       N  0.67601929  0.51098768  0.57494612     0.73800
O1871       O  0.96238508  0.36698051  0.67154531    -0.39600
O1872       O  0.70043676  0.36735867  0.67110052    -0.39600
O1873       O  0.97477166  0.52683670  0.56256686    -0.40300
O1874       O  0.71422158  0.52687068  0.57168249    -0.40400
C1875       C  0.87368916  0.53987800  0.89724118    -0.12600
C1876       C  0.85844730  0.50253598  0.88302780     0.04400
C1877       C  0.83856128  0.47139588  0.90176830    -0.07900
C1878       C  0.82908399  0.48046536  0.93272594    -0.08700
C1879       C  0.83912792  0.51994062  0.94586902    -0.03200
C1880       C  0.86448232  0.54880041  0.92829647     0.03600
N1881       N  0.87766028  0.58895730  0.94056074     0.66100
H1882       H  0.88996043  0.56406116  0.88375581     0.15000
H1883       H  0.81090083  0.45724986  0.94602821     0.14700
N1884       N  0.82554436  0.43111811  0.88970137     0.73800
O1885       O  0.91660498  0.59385775  0.94987839    -0.39600
O1886       O  0.85530951  0.62097522  0.93465474    -0.39600
O1887       O  0.85135178  0.40052339  0.89226910    -0.40300
O1888       O  0.78499054  0.42373801  0.88573428    -0.40400
C1889       C  0.85731588  0.83428054  0.84954788     0.79900
N1890       N  0.82795277  0.80767820  0.83556875    -0.78500
C1891       C  0.82204659  0.80929979  0.80487788     0.82300
N1892       N  0.84523232  0.83770787  0.78825744    -0.78400
C1893       C  0.87486169  0.86395663  0.80148187     0.82400
N1894       N  0.88075766  0.86260764  0.83224281    -0.80100
C1895       C  0.66455665  0.80477549  0.68544635     0.79900
N1896       N  0.63992350  0.83808258  0.69631795    -0.78500
C1897       C  0.64222918  0.85120260  0.72631170     0.82300
N1898       N  0.67042869  0.83126170  0.74498993    -0.78400
C1899       C  0.69492611  0.79798266  0.73436780     0.82400
N1900       N  0.69163278  0.78498968  0.70476650    -0.80100
C1901       C  0.69538930  0.97267821  0.84156905     0.79900
N1902       N  0.71873403  0.67316814  0.83022360    -0.78500
C1903       C  0.71303576  0.68561032  0.80099850     0.82300
N1904       N  0.01619306  0.66516570  0.78351027    -0.78400
C1905       C  0.99238088  0.96513077  0.79431549     0.82400
N1906       N  0.99878789  0.95231459  0.82345278    -0.80100
C1907       C  0.83967154  0.00457190  0.67810325     0.79900
N1908       N  0.86513353  0.97629342  0.69264829    -0.78500
C1909       C  0.86527983  0.97495531  0.72365271     0.82300
N1910       N  0.83948343  0.00235942  0.74020393    -0.78400
C1911       C  0.81292672  0.02999601  0.72619837     0.82400
N1912       N  0.81369433  0.03159446  0.69507359    -0.80100
C1913       C  0.89565628  0.94576015  0.74036824     0.86100
C1914       C  0.93109839  0.97034715  0.75795241    -0.54100
C1915       C  0.95705784  0.94613879  0.77550012     0.09000
C1916       C  0.94531755  0.89880163  0.77375621     0.20000
C1917       C  0.92179784  0.91186143  0.72150136    -0.54800
C1918       C  0.94799699  0.88690760  0.73899727     0.09200
C1919       C  0.87008409  0.92075244  0.76460594    -0.54400
C1920       C  0.89567131  0.89635538  0.78219490     0.09700
H1921       H  0.93487103  0.00434829  0.75693921     0.14200
H1922       H  0.96602788  0.87907471  0.78831594     0.00000
H1923       H  0.91945079  0.90777358  0.69682208     0.14500
H1924       H  0.83419629  0.92080135  0.76673723     0.14300
C1925       C  0.79108976  0.78034927  0.78798723     0.86100
C1926       C  0.75536651  0.80426770  0.77149258    -0.54100
C1927       C  0.72913789  0.77943388  0.75354849     0.09000
C1928       C  0.74120566  0.73206498  0.75388593     0.20000
C1929       C  0.76573389  0.74665413  0.80618673    -0.54800
C1930       C  0.73936582  0.72113598  0.78837472     0.09200
C1931       C  0.81645924  0.75558232  0.76298562    -0.54400
C1932       C  0.79102503  0.72996203  0.74522817     0.09700
H1933       H  0.75192361  0.83825969  0.77323847     0.14200
H1934       H  0.72020563  0.71152629  0.73915881     0.00000
H1935       H  0.76863338  0.74295436  0.83065418     0.14500
H1936       H  0.85236525  0.75607919  0.76088215     0.14300
O1937       O  0.75549977  0.95047055  0.98311848    -0.72100
O1938       O  0.80884838  0.90020922  0.05163680    -0.72400
O1939       O  0.82420807  0.90089892  0.98960437    -0.72200
O1940       O  0.74054477  0.95057744  0.04491279    -0.72200
O1941       O  0.69867314  0.89490532  0.04207490    -0.72200
O1942       O  0.78008652  0.84730686  0.98332363    -0.72200
O1943       O  0.76789816  0.84436789  0.04531008    -0.72200
O1944       O  0.71085832  0.89681357  0.97950246    -0.72300
V1945       V  0.78142703  0.92445307  0.01731787     1.35200
V1946       V  0.74012344  0.87192729  0.01262675     1.35200
C1947       C  0.72581646  0.93077795  0.96845588     0.77100
C1948       C  0.79620995  0.86439484  0.06092952     0.77200
C1949       C  0.81468290  0.86732040  0.97509276     0.77000
C1950       C  0.70725035  0.93019201  0.05480484     0.77000
O1951       O  0.89890821  0.71289686  0.47697700    -0.72100
O1952       O  0.95503835  0.77036647  0.54275734    -0.72400
O1953       O  0.96747123  0.76456268  0.48088267    -0.72200
O1954       O  0.88604129  0.71907206  0.53849851    -0.72200
O1955       O  0.92938081  0.66632275  0.54534470    -0.72200
O1956       O  0.00943337  0.71009262  0.48441754    -0.72200
O1957       O  0.99904743  0.71764456  0.54748122    -0.72200
O1958       O  0.94023673  0.65848855  0.48294232    -0.72300
V1959       V  0.92779692  0.74062241  0.50987922     1.35200
V1960       V  0.96888431  0.68916753  0.51499983     1.35200
C1961       C  0.91166332  0.67697772  0.46753403     0.77100
C1962       C  0.98446792  0.75257899  0.55778198     0.77200
C1963       C  0.99993027  0.74342468  0.47062292     0.77000
C1964       C  0.89504109  0.68671145  0.55333853     0.77000
C1965       C  0.83971150  0.80926594  0.18292014     0.79900
N1966       N  0.82028663  0.77359735  0.19441527    -0.78500
C1967       C  0.83414447  0.75792979  0.22130308     0.82300
N1968       N  0.86736202  0.77762806  0.23622774    -0.78400
C1969       C  0.88649529  0.81311584  0.22555548     0.82400
N1970       N  0.87261676  0.82914644  0.19884294    -0.80100
C1971       C  0.70498383  0.77590638  0.34329943     0.79900
N1972       N  0.67823385  0.80234294  0.32834675    -0.78500
C1973       C  0.67885679  0.80290134  0.29704864     0.82300
N1974       N  0.70617572  0.77662415  0.28062207    -0.78200
C1975       C  0.73291019  0.75022389  0.29529355     0.82400
N1976       N  0.73193150  0.75012626  0.32645276    -0.80100
C1977       C  0.67605752  0.96153968  0.18099518     0.79900
N1978       N  0.70872288  0.65216263  0.19480739    -0.78500
C1979       C  0.71902545  0.64453507  0.22433430     0.82300
N1980       N  0.03146822  0.61280214  0.23929464    -0.78400
C1981       C  0.99933868  0.92296284  0.22622089     0.82400
N1982       N  0.98809292  0.93082645  0.19707960    -0.80100
C1983       C  0.88089611  0.96236431  0.34168764     0.79900
N1984       N  0.85338687  0.98403587  0.32395630    -0.78500
C1985       C  0.84867959  0.97410154  0.29373596     0.82300
N1986       N  0.87224783  0.94199765  0.28096860    -0.78400
C1987       C  0.89946554  0.91935972  0.29840790     0.82400
N1988       N  0.90377687  0.92961094  0.32874747    -0.80100
C1989       C  0.98218870  0.83139207  0.28008379     0.86100
C1990       C  0.00745698  0.86133308  0.25887658    -0.54100
C1991       C  0.98090521  0.88667563  0.24258294     0.09000
C1992       C  0.93122204  0.87933007  0.24866327     0.20000
C1993       C  0.95266351  0.86027493  0.30017946    -0.54800
C1994       C  0.92627528  0.88571205  0.28382178     0.09200
C1995       C  0.95023679  0.80703784  0.25950152    -0.54400
C1996       C  0.92332876  0.83184920  0.24302379     0.09700
H1997       H  0.71002427  0.86381121  0.25812827     0.14200
H1998       H  0.90970727  0.89980430  0.23523203     0.00000
H1999       H  0.95362981  0.86172809  0.32497646     0.14500
H2000       H  0.94820474  0.77285657  0.25876505     0.14300
C2001       C  0.81842595  0.66609789  0.27428017     0.86100
C2002       C  0.84248186  0.69406958  0.25119686    -0.54100
C2003       C  0.81531152  0.71935906  0.23507190     0.09000
C2004       C  0.76557256  0.71278937  0.24309702     0.20000
C2005       C  0.79018144  0.69615932  0.29400836    -0.54800
C2006       C  0.76254428  0.72068827  0.27826921     0.09200
C2007       C  0.78519049  0.64070175  0.25567018    -0.54400
C2008       C  0.75728123  0.66470206  0.23926457     0.09700
H2009       H  0.87833991  0.69668256  0.24996854     0.14200
H2010       H  0.74294330  0.73249027  0.22993862     0.00000
H2011       H  0.79112845  0.69736433  0.31878811     0.14500
H2012       H  0.78294015  0.93978644  0.25677859     0.14300
C2013       C  0.01094429  0.79453441  0.42866749    -0.12600
C2014       C  0.02116410  0.75522083  0.44077267     0.04400
C2015       C  0.70935831  0.72510195  0.42122792    -0.07900
C2016       C  0.71615205  0.73359073  0.39005076    -0.08700
C2017       C  0.70231540  0.77150535  0.37737747    -0.03200
C2018       C  0.01776203  0.80297266  0.39747595     0.03600
N2019       N  0.00458924  0.84288026  0.38664976     0.66100
H2020       H  0.99491806  0.81831863  0.44316862     0.15000
H2021       H  0.73025436  0.70896975  0.37535372     0.14700
N2022       N  0.72126001  0.68462761  0.43179751     0.73800
O2023       O  0.96408854  0.84916862  0.38249655    -0.39600
O2024       O  0.03039660  0.87408176  0.38968380    -0.39600
O2025       O  0.69616961  0.65349139  0.42638762    -0.40300
O2026       O  0.76086281  0.67826049  0.43874549    -0.40400
C2027       C  0.87895945  0.68906899  0.41718593    -0.12600
C2028       C  0.89743982  0.66039815  0.43711957     0.04400
C2029       C  0.90982296  0.95664665  0.42605477    -0.07900
C2030       C  0.90264525  0.94569746  0.39515391    -0.08700
C2031       C  0.88631678  0.97492426  0.37462026    -0.03200
C2032       C  0.87305847  0.67912698  0.38622170     0.03600
N2033       N  0.85839256  0.71184437  0.36706157     0.66100
H2034       H  0.87145827  0.72086655  0.42512015     0.15000
H2035       H  0.91019822  0.91399709  0.38714988     0.14700
N2036       N  0.92678188  0.92549401  0.44562035     0.73800
O2037       O  0.81912354  0.72446557  0.37021537    -0.39600
O2038       O  0.88681892  0.73546088  0.35435383    -0.39600
O2039       O  0.90066033  0.89825332  0.45665703    -0.40300
O2040       O  0.96783731  0.91885249  0.44546559    -0.40400
C2041       C  0.69831227  0.98356919  0.09682165    -0.12600
C2042       C  0.68395991  0.94528033  0.08338627     0.04400
C2043       C  0.65618600  0.91875500  0.10110575    -0.07900
C2044       C  0.65005268  0.92733178  0.13253739    -0.08700
C2045       C  0.67095497  0.96202402  0.14702475    -0.03200
C2046       C  0.69211429  0.99218451  0.12824727     0.03600
N2047       N  0.71403767  0.69670749  0.14079664     0.66100
H2048       H  0.71783472  0.00565999  0.08342307     0.15000
H2049       H  0.63157710  0.90449907  0.14593261     0.14700
N2050       N  0.63646818  0.88142529  0.08836546     0.73800
O2051       O  0.75491071  0.69795037  0.14597968    -0.39600
O2052       O  0.69334850  0.73079048  0.13891024    -0.39600
O2053       O  0.65263133  0.84613524  0.09425542    -0.40300
O2054       O  0.59719947  0.88293209  0.07931403    -0.40400
C2055       C  0.81719800  0.79385327  0.12901972    -0.12600
C2056       C  0.82836886  0.82384062  0.15182768     0.04400
C2057       C  0.83087004  0.86665898  0.14385015    -0.07900
C2058       C  0.82240219  0.87852932  0.11378361    -0.08700
C2059       C  0.81068732  0.84869315  0.09103017    -0.03200
C2060       C  0.80835331  0.80578262  0.09894699     0.03600
N2061       N  0.79857314  0.77357934  0.07665967     0.66100
H2062       H  0.81618036  0.76089120  0.13432695     0.15000
H2063       H  0.82322360  0.91160382  0.10862581     0.14700
N2064       N  0.83928103  0.89898801  0.16632291     0.73800
O2065       O  0.83008687  0.75411926  0.06349235    -0.39600
O2066       O  0.76026421  0.75748775  0.07634270    -0.39600
O2067       O  0.87671910  0.91686415  0.16657110    -0.40300
O2068       O  0.80700315  0.91649062  0.18008548    -0.40400
C2069       C  0.84704096  0.71090994  0.59684735    -0.12600
C2070       C  0.86936327  0.67737116  0.58189299     0.04400
C2071       C  0.87784615  0.97674865  0.59754379    -0.07900
C2072       C  0.86275379  0.97326874  0.62787086    -0.08700
C2073       C  0.84447081  0.00771755  0.64419538    -0.03200
C2074       C  0.83436257  0.70916169  0.62789275     0.03600
N2075       N  0.81906645  0.74699796  0.64280994     0.66100
H2076       H  0.84356594  0.74064299  0.58541354     0.15000
H2077       H  0.86809883  0.94381783  0.63929397     0.14700
N2078       N  0.90038457  0.94192985  0.58356637     0.73800
O2079       O  0.84656071  0.77037484  0.65655845    -0.39600
O2080       O  0.78301427  0.76253947  0.63478126    -0.39600
O2081       O  0.93939360  0.93456634  0.59140283    -0.40300
O2082       O  0.87801699  0.91306962  0.57078203    -0.40400
C2083       C  0.71322135  0.99342403  0.89543168    -0.12600
C2084       C  0.70041160  0.96165897  0.87437029     0.04400
C2085       C  0.69303453  0.92057668  0.88525976    -0.07900
C2086       C  0.69863647  0.91227245  0.91639691    -0.08700
C2087       C  0.71278852  0.94376147  0.93729127    -0.03200
C2088       C  0.71981771  0.98491598  0.92640794     0.03600
N2089       N  0.73361008  0.01860378  0.94632822     0.66100
H2090       H  0.71853769  0.02538292  0.88778837     0.15000
H2091       H  0.69433780  0.88009986  0.92385056     0.14700
N2092       N  0.01679258  0.88628807  0.86473232     0.73800
O2093       O  0.77404712  0.02871968  0.94685977    -0.39600
O2094       O  0.70522765  0.04454506  0.95643075    -0.39600
O2095       O  0.04836887  0.86506006  0.85328783    -0.40300
O2096       O  0.97809094  0.87113758  0.86416297    -0.40400
C2097       C  0.00828021  0.73956020  0.61080159    -0.12600
C2098       C  0.99621677  0.76879071  0.58891584     0.04400
C2099       C  0.65557887  0.81063215  0.59873849    -0.07900
C2100       C  0.65621481  0.82168866  0.63010881    -0.08700
C2101       C  0.66461332  0.79167386  0.65234700    -0.03200
C2102       C  0.67491189  0.75008827  0.64226162     0.03600
N2103       N  0.68363764  0.71767115  0.66345397     0.66100
H2104       H  0.01449020  0.70714424  0.60386823     0.15000
H2105       H  0.65002101  0.85409446  0.63706534     0.14700
N2106       N  0.64823323  0.84282205  0.57716997     0.73800
O2107       O  0.98809476  0.69231512  0.67064512    -0.39600
O2108       O  0.72314045  0.70765901  0.66805095    -0.39600
O2109       O  0.94020935  0.84746979  0.56862397    -0.40300
O2110       O  0.67727738  0.87113315  0.57328103    -0.40400
C2111       C  0.87328239  0.87455714  0.89783927    -0.12600
C2112       C  0.85830141  0.83704822  0.88370541     0.04400
C2113       C  0.83910740  0.80569698  0.90255392    -0.07900
C2114       C  0.82975440  0.81470715  0.93353909    -0.08700
C2115       C  0.83928855  0.85434902  0.94662101    -0.03200
C2116       C  0.86419635  0.88344662  0.92893832     0.03600
N2117       N  0.87722073  0.92366604  0.94117883     0.66100
H2118       H  0.88930988  0.89881043  0.88427366     0.15000
H2119       H  0.81205773  0.79125676  0.94692896     0.14700
N2120       N  0.82692638  0.76512720  0.89059240     0.73800
O2121       O  0.91642201  0.92892075  0.94990776    -0.39600
O2122       O  0.85438300  0.95549298  0.93559490    -0.39600
O2123       O  0.85340164  0.73506454  0.89319871    -0.40300
O2124       O  0.78654782  0.75695756  0.88654456    -0.40400
loop_ 
_geom_bond_atom_site_label_1 
_geom_bond_atom_site_label_2 
_geom_bond_distance 
_geom_bond_site_symmetry_2 
_ccdc_geom_bond_type 
C1            N2   1.364       .  A
C1            N6   1.370       .  A
C1          C224   1.492       .  S
N2            C3   1.357       .  A
C3            N4   1.351       .  A
C3           C37   1.499       .  S
N4            C5   1.348       .  A
C5            N6   1.360       .  A
C5           C32   1.473       .  S
C7            N8   1.370       .  A
C7           N12   1.357   1_655  A
C7          C213   1.491   1_655  S
N8            C9   1.368       .  A
C9           N10   1.364   1_655  A
C9         C1446   1.505       .  S
N10          C11   1.365       .  A
C11          N12   1.352       .  A
C11          C39   1.481       .  S
C13         N250   1.362       .  A
C13        N1434   1.364   1_455  A
C13         C196   1.494       .  S
N14          C15   1.359       .  A
N14         C485   1.362   1_545  A
C15        N1432   1.356   1_545  A
C15          C42   1.485       .  S
N16         C723   1.356   1_565  A
N16         C489   1.360       .  A
C17          N18   1.362       .  A
C17         N252   1.360       .  A
C17          C27   1.478       .  S
N18         C721   1.364       .  A
C19          N20   1.366       .  A
C19          N24   1.365       .  A
C19         C185   1.490       .  S
N20          C21   1.355       .  A
C21          N22   1.359       .  A
C21          C25   1.522       .  S
N22          C23   1.361       .  A
C23          N24   1.360       .  A
C23         C280   1.478       .  S
C25          C26   1.530       .  S
C25          C31   1.528       .  S
C25          C29   1.552       .  S
C26          H33   1.087       .  S
C26          C27   1.365       .  D
C27          C28   1.543       .  S
C28          C32   1.540       .  S
C28          C30   1.556       .  S
C28          H34   1.111       .  S
C29          H35   1.086       .  S
C29          C30   1.380       .  D
C30         C717   1.505       .  S
C31          H36   1.087       .  S
C31          C32   1.363       .  D
C37          C38   1.530       .  S
C37          C43   1.528       .  S
C37          C41   1.536       .  S
C38          H45   1.087       .  S
C38          C39   1.361       .  D
C39          C40   1.554       .  S
C40          C44   1.547       .  S
C40          C42   1.552       .  S
C40          H46   1.111       .  S
C41          H47   1.082       .  S
C41          C42   1.373       .  D
C43          H48   1.088       .  S
C43          C44   1.356       .  D
C44         C495   1.479       .  S
O49          V57   1.910   1_556  S
O49          C59   1.266       .  A
O50          V57   1.908       .  S
O50          C60   1.269       .  A
O51          V57   1.898   1_556  S
O51          C61   1.262       .  A
O52          V57   1.890       .  S
O52          C62   1.264       .  A
O53          V58   1.914       .  S
O53          C62   1.267       .  A
O54          V58   1.901   1_556  S
O54          C61   1.268       .  A
O55          V58   1.905       .  S
O55          C60   1.264       .  A
O56          V58   1.903   1_556  S
O56          C59   1.267       .  A
V57          V58   2.083       .  T
C59         C199   1.492       .  S
C60         C171   1.490       .  S
C61         C227   1.485       .  S
C62         C154   1.490       .  S
O63          V71   1.898       .  S
O63          C73   1.267       .  A
O64          V71   1.902       .  S
O64          C74   1.264       .  A
O65          V71   1.889       .  S
O65          C75   1.263       .  A
O66          V71   1.892       .  S
O66          C76   1.263       .  A
O67          V72   1.910       .  S
O67          C76   1.268       .  A
O68          V72   1.914       .  S
O68          C75   1.268       .  A
O69          V72   1.907       .  S
O69          C74   1.268       .  A
O70          V72   1.906   1_565  S
O70          C73   1.265   1_565  A
V71          V72   2.084       .  T
C73         C140   1.491   1_545  S
C74         C210   1.489       .  S
C75         C126   1.490       .  S
C76         C182   1.487       .  S
C77          N78   1.370       .  A
C77          N82   1.367       .  A
C77         C168   1.489       .  S
N78          C79   1.361       .  A
C79          N80   1.351       .  A
C79         C115   1.479       .  S
N80          C81   1.349       .  A
C81          N82   1.358       .  A
C81         C108   1.476       .  S
C83          N84   1.359       .  A
C83          N88   1.354       .  A
C83         C129   1.495       .  S
N84          C85   1.365       .  A
C85          N86   1.362       .  A
C85        C1517   1.502   1_455  S
N86          C87   1.352       .  A
C87          N88   1.358       .  A
C87         C118   1.479       .  S
C89         N326   1.368       .  A
C89        N1510   1.365   1_455  A
C89         C157   1.494       .  S
N90          C91   1.362       .  A
N90         C561   1.369       .  A
C91        N1508   1.352       .  A
C91         C120   1.477       .  S
N92         C799   1.352       .  A
N92         C565   1.349       .  A
C93          N94   1.354       .  A
C93         N328   1.350       .  A
C93         C103   1.469       .  S
N94         C797   1.365       .  A
C95          N96   1.352       .  A
C95         N100   1.361       .  A
C95         C143   1.495       .  S
N96          C97   1.359       .  A
C97          N98   1.354       .  A
C97         C349   1.505       .  S
N98          C99   1.357       .  A
C99         N100   1.365       .  A
C99         C106   1.474       .  S
C101        C793   1.502       .  S
C101        C102   1.528       .  S
C101        C107   1.526       .  S
C101        C105   1.534       .  S
C102        H817   1.087       .  S
C102        C103   1.366       .  D
C103        C104   1.537       .  S
C104        C108   1.541       .  S
C104        C106   1.547       .  S
C104        H110   1.111       .  S
C105        H111   1.083       .  S
C105        C106   1.366       .  D
C107        H112   1.087       .  S
C107        C108   1.366       .  D
H109       C1518   1.087       .  S
C113        C569   1.506       .  S
C113        C114   1.525   1_565  S
C113        C119   1.522       .  S
C113        C117   1.524   1_565  S
C114        H121   1.087       .  S
C114        C115   1.371       .  D
C115        C116   1.549       .  S
C116        C120   1.552   1_545  S
C116        C118   1.550       .  S
C116        H122   1.111       .  S
C117        H123   1.083       .  S
C117        C118   1.357       .  D
C119        H596   1.087       .  S
C119        C120   1.370       .  D
H124        C355   1.087       .  S
C125        C126   1.407       .  A
C125        C130   1.402       .  A
C125        H132   1.086       .  S
C126        C835   1.414       .  A
C127        C128   1.402       .  A
C127       C1542   1.414       .  A
C127        N134   1.429       .  S
C128        C129   1.408       .  A
C128        H133   1.085       .  S
C129       C1546   1.413       .  A
C130        C837   1.413       .  A
C130        N131   1.427       .  S
N131        O135   1.261       .  A
N131        O136   1.262       .  A
N134        O138   1.262       .  A
N134        O137   1.262   1_545  A
C139        C140   1.403   1_545  A
C139        C144   1.398       .  A
C139        H146   1.085       .  S
C140        C613   1.415       .  A
C141        C142   1.406       .  A
C141        C376   1.415       .  A
C141        N148   1.429       .  S
C142        C143   1.406       .  A
C142        H147   1.083       .  S
C143        C380   1.418       .  A
C144        C615   1.418   1_545  A
C144        N145   1.429       .  S
N145        O149   1.261       .  A
N145        O150   1.262       .  A
N148        O152   1.262       .  A
N148        O151   1.262       .  A
C153        C154   1.407       .  A
C153        C158   1.399       .  A
C153        H160   1.085       .  S
C154        C155   1.414   1_455  A
C155        C156   1.402       .  A
C155        N162   1.429       .  S
C156        C157   1.410   1_655  A
C156        H161   1.085       .  S
C157        C158   1.415       .  A
C158        N395   1.429       .  S
N159        C630   1.429   1_545  S
N159        O163   1.262       .  A
N159        O164   1.262       .  A
N162        O166   1.262       .  A
N162        O165   1.262       .  A
C167        C168   1.406       .  A
C167        C172   1.406       .  A
C167        H174   1.079       .  S
C168        C169   1.412       .  A
C169        C170   1.402       .  A
C169        N176   1.429       .  S
C170        C171   1.406       .  A
C170        H175   1.080       .  S
C171        C172   1.415       .  A
C172        N173   1.429       .  S
N173        O177   1.262       .  A
N173        O178   1.262       .  A
N176        O180   1.262       .  A
N176        O179   1.262       .  A
C181        C182   1.408       .  A
C181        C186   1.403       .  A
C181        H188   1.085       .  S
C182        C655   1.409   1_545  A
C183        C184   1.397       .  A
C183        C418   1.410       .  A
C183        N190   1.425       .  S
C184        C185   1.404       .  A
C184        H189   1.085       .  S
C185        C422   1.417       .  A
C186        C657   1.417       .  A
C186        N187   1.430       .  S
N187        O191   1.262       .  A
N187        O192   1.262       .  A
N190        O194   1.262       .  A
N190        O193   1.262       .  A
C195        C196   1.408       .  A
C195        C200   1.405       .  A
C195        H202   1.085       .  S
C196        C197   1.413       .  A
C197        C198   1.403       .  A
C197       N1620   1.429       .  S
C198        C199   1.408       .  A
C198        H203   1.085       .  S
C199        C200   1.414       .  A
C200        N201   1.429       .  S
N201        O205   1.262       .  A
N201        O206   1.262       .  A
N204        C905   1.429       .  S
N204        O208   1.261       .  A
N204        O207   1.262       .  A
C209        C210   1.404       .  A
C209        C922   1.401       .  A
C209        H216   1.084       .  S
C210        C919   1.414       .  A
C211        C212   1.407       .  A
C211       C1626   1.414   1_655  A
C211        N218   1.429       .  S
C212        C213   1.405   1_655  A
C212        H217   1.084       .  S
C213        C214   1.417       .  A
C214       C1625   1.401       .  A
C214        N215   1.430       .  S
N215       O1635   1.262   1_455  A
N215        O220   1.262       .  A
N218        O222   1.262   1_655  A
N218       O1637   1.261       .  A
O219        N923   1.262       .  A
O221        N926   1.261       .  A
C223        C224   1.405       .  A
C223        C228   1.401       .  A
C223        H230   1.085       .  S
C224        C225   1.418       .  A
C225        C226   1.399       .  A
C225        N232   1.428       .  S
C226        C227   1.401       .  A
C226        H231   1.086       .  S
C227        C228   1.417       .  A
C228        N229   1.429       .  S
N229        O233   1.262       .  A
N229        O234   1.262       .  A
N232        O236   1.262       .  A
N232        O235   1.262       .  A
C237        N238   1.363       .  A
C237        N242   1.370       .  A
C237        C460   1.492       .  S
N238        C239   1.357       .  A
C239        N240   1.351       .  A
C239        C273   1.499       .  S
N240        C241   1.349       .  A
C241        N242   1.360       .  A
C241        C268   1.472       .  S
C243        N244   1.369       .  A
C243        N248   1.358   1_655  A
C243        C449   1.488       .  S
N244        C245   1.368       .  A
C245        N246   1.363   1_655  A
C245       C1682   1.503       .  S
N246        C247   1.364       .  A
C247        N248   1.353       .  A
C247        C275   1.481       .  S
C249        N486   1.362       .  A
C249       N1670   1.364   1_455  A
C249        C432   1.493       .  S
N250        C251   1.360       .  A
C251       N1668   1.355       .  A
C251        C278   1.484       .  S
N252        C959   1.355       .  A
C253        N488   1.359       .  A
C253        N254   1.362       .  A
C253        C263   1.476       .  S
N254        C957   1.364       .  A
C255        N256   1.365       .  A
C255        N260   1.364       .  A
C255        C421   1.488       .  S
N256        C257   1.354       .  A
C257        N258   1.359       .  A
C257        C261   1.520       .  S
N258        C259   1.360       .  A
C259        N260   1.360       .  A
C259        C516   1.478       .  S
C261        C262   1.530       .  S
C261        C267   1.528       .  S
C261        C265   1.551       .  S
C262        H269   1.087       .  S
C262        C263   1.364       .  D
C263        C264   1.542       .  S
C264        C268   1.540       .  S
C264        C266   1.555       .  S
C264        H270   1.111       .  S
C265        H271   1.086       .  S
C265        C266   1.380       .  D
C266        C953   1.503       .  S
C267        H272   1.087       .  S
C267        C268   1.363       .  D
C273        C274   1.529       .  S
C273        C279   1.527       .  S
C273        C277   1.535       .  S
C274        H281   1.087       .  S
C274        C275   1.361       .  D
C275        C276   1.554       .  S
C276        C280   1.547       .  S
C276        C278   1.552       .  S
C276        H282   1.110       .  S
C277        H283   1.082       .  S
C277        C278   1.372       .  D
C279        H284   1.088       .  S
C279        C280   1.357       .  D
O285        V293   1.908   1_556  S
O285        C295   1.266       .  A
O286        V293   1.907       .  S
O286        C296   1.268       .  A
O287        V293   1.897   1_556  S
O287        C297   1.262       .  A
O288        V293   1.890       .  S
O288        C298   1.264       .  A
O289        V294   1.913       .  S
O289        C298   1.267       .  A
O290        V294   1.900   1_556  S
O290        C297   1.268       .  A
O291        V294   1.906       .  S
O291        C296   1.264       .  A
O292        V294   1.902   1_556  S
O292        C295   1.267       .  A
V293        V294   2.084       .  T
C295        C435   1.491       .  S
C296        C407   1.489       .  S
C297        C463   1.485       .  S
C298        C390   1.489       .  S
O299        V307   1.899       .  S
O299        C309   1.267       .  A
O300        V307   1.906       .  S
O300        C310   1.264       .  A
O301        V307   1.890       .  S
O301        C311   1.264       .  A
O302        V307   1.894       .  S
O302        C312   1.264       .  A
O303        V308   1.910       .  S
O303        C312   1.268       .  A
O304        V308   1.913       .  S
O304        C311   1.268       .  A
O305        V308   1.905       .  S
O305        C310   1.267       .  A
O306        V308   1.905       .  S
O306        C309   1.264       .  A
V307        V308   2.084       .  T
C309        C376   1.491       .  S
C310        C446   1.485       .  S
C311        C362   1.491       .  S
C312        C418   1.489       .  S
C313        N314   1.370       .  A
C313        N318   1.367       .  A
C313        C404   1.489       .  S
N314        C315   1.361       .  A
C315        N316   1.350       .  A
C315        C351   1.479       .  S
N316        C317   1.349       .  A
C317        N318   1.358       .  A
C317        C344   1.475       .  S
C319        N320   1.359       .  A
C319        N324   1.354       .  A
C319        C365   1.495       .  S
N320        C321   1.365       .  A
C321        N322   1.362       .  A
C321       C1753   1.502   1_455  S
N322        C323   1.353       .  A
C323        N324   1.359       .  A
C323        C354   1.480       .  S
C325        N562   1.368       .  A
C325       N1746   1.364   1_455  A
C325        C393   1.493       .  S
N326        C327   1.359       .  A
C327       N1744   1.352       .  A
C327        C356   1.474       .  S
N328       C1035   1.352       .  A
C329        N564   1.350       .  A
C329        N330   1.353       .  A
C329        C339   1.467       .  S
N330       C1033   1.364       .  A
C331        N332   1.352       .  A
C331        N336   1.360       .  A
C331        C379   1.493       .  S
N332        C333   1.358       .  A
C333        N334   1.354       .  A
C333        C585   1.506       .  S
N334        C335   1.357       .  A
C335        N336   1.365       .  A
C335        C342   1.474       .  S
C337       C1029   1.502       .  S
C337        C338   1.528       .  S
C337        C343   1.526       .  S
C337        C341   1.534       .  S
C338       H1053   1.087       .  S
C338        C339   1.365       .  D
C339        C340   1.537       .  S
C340        C344   1.541       .  S
C340        C342   1.546       .  S
C340        H346   1.111       .  S
C341        H347   1.082       .  S
C341        C342   1.366       .  D
C343        H348   1.087       .  S
C343        C344   1.366       .  D
H345       C1754   1.087       .  S
C349        C350   1.525       .  S
C349        C355   1.521       .  S
C349        C353   1.525       .  S
C350        H357   1.087       .  S
C350        C351   1.372       .  D
C351        C352   1.550       .  S
C352        C356   1.551       .  S
C352        C354   1.550       .  S
C352        H358   1.111       .  S
C353        H359   1.082       .  S
C353        C354   1.357       .  D
C355        C356   1.369       .  D
H360        C591   1.087       .  S
C361        C362   1.406       .  A
C361        C366   1.402       .  A
C361        H368   1.086       .  S
C362       C1071   1.414       .  A
C363       C1778   1.414       .  A
C363        C364   1.402       .  A
C363        N370   1.428       .  S
C364        C365   1.408       .  A
C364        H369   1.085       .  S
C365       C1782   1.413       .  A
C366       C1073   1.413       .  A
C366        N367   1.427       .  S
N367        O371   1.261       .  A
N367        O372   1.262       .  A
N370        O374   1.262       .  A
N370        O373   1.262       .  A
C375        C376   1.403       .  A
C375        C380   1.398       .  A
C375        H382   1.085       .  S
C377        C612   1.415       .  A
C377        C378   1.406       .  A
C377        N384   1.428       .  S
C378        C379   1.406       .  A
C378        H383   1.084       .  S
C379        C616   1.418       .  A
C380        N381   1.429       .  S
N381        O385   1.261       .  A
N381        O386   1.262       .  A
N384        O388   1.262       .  A
N384        O387   1.262       .  A
C389        C390   1.407       .  A
C389        C394   1.400       .  A
C389        H396   1.085       .  S
C390        C391   1.413   1_455  A
C391        C392   1.401       .  A
C391        N398   1.429       .  S
C392        C393   1.409   1_655  A
C392        H397   1.084       .  S
C393        C394   1.413       .  A
C394        N631   1.429       .  S
N395        O399   1.262       .  A
N395        O400   1.262       .  A
N398        O402   1.262       .  A
N398        O401   1.262       .  A
C403        C404   1.407       .  A
C403        C408   1.406       .  A
C403        H410   1.078       .  S
C404        C405   1.412       .  A
C405        C406   1.401       .  A
C405        N412   1.429       .  S
C406        C407   1.405       .  A
C406        H411   1.080       .  S
C407        C408   1.414       .  A
C408        N409   1.429       .  S
N409        O413   1.262       .  A
N409        O414   1.262       .  A
N412        O416   1.262       .  A
N412        O415   1.262       .  A
C417        C418   1.408       .  A
C417        C422   1.403       .  A
C417        H424   1.085       .  S
C419        C654   1.410       .  A
C419        C420   1.398       .  A
C419        N426   1.426       .  S
C420        C421   1.405       .  A
C420        H425   1.085       .  S
C421        C658   1.416       .  A
C422        N423   1.430       .  S
N423        O427   1.262       .  A
N423        O428   1.262       .  A
N426        O430   1.262       .  A
N426        O429   1.262       .  A
C431        C432   1.407       .  A
C431        C436   1.403       .  A
C431        H438   1.085       .  S
C432        C433   1.413       .  A
C433        C434   1.403       .  A
C433       N1856   1.429       .  S
C434        C435   1.408       .  A
C434        H439   1.085       .  S
C435        C436   1.414       .  A
C436        N437   1.429       .  S
N437        O441   1.262       .  A
N437        O442   1.262       .  A
N440       C1141   1.429       .  S
N440        O444   1.261       .  A
N440        O443   1.262       .  A
C445        C446   1.403       .  A
C445       C1158   1.399       .  A
C445        H452   1.085       .  S
C446       C1155   1.412       .  A
C447       C1862   1.412   1_455  A
C447        C448   1.409       .  A
C447        N454   1.428       .  S
C448        C449   1.406   1_455  A
C448        H453   1.084       .  S
C449        C450   1.414       .  A
C450       C1861   1.399       .  A
C450        N451   1.429       .  S
N451       O1871   1.262       .  A
N451        O456   1.262   1_655  A
N454        O458   1.262       .  A
N454       O1873   1.261   1_455  A
O455       N1159   1.262       .  A
O457       N1162   1.261       .  A
C459        C460   1.405       .  A
C459        C464   1.400       .  A
C459        H466   1.085       .  S
C460        C461   1.418       .  A
C461        C462   1.399       .  A
C461        N468   1.428       .  S
C462        C463   1.401       .  A
C462        H467   1.086       .  S
C463        C464   1.417       .  A
C464        N465   1.429       .  S
N465        O469   1.262       .  A
N465        O470   1.262       .  A
N468        O472   1.261       .  A
N468        O471   1.262       .  A
C473        N474   1.364       .  A
C473        N478   1.370       .  A
C473        C696   1.492       .  S
N474        C475   1.357       .  A
C475        N476   1.351       .  A
C475        C509   1.500       .  S
N476        C477   1.348       .  A
C477        N478   1.360       .  A
C477        C504   1.472       .  S
C479        N480   1.370       .  A
C479        N484   1.358   1_655  A
C479        C685   1.494       .  S
N480        C481   1.367       .  A
C481        N482   1.364   1_655  A
C481       C1918   1.506       .  S
N482        C483   1.364       .  A
C483        N484   1.353       .  A
C483        C511   1.481       .  S
C485       N1906   1.364   1_455  A
C485        C668   1.492       .  S
N486        C487   1.359       .  A
C487       N1904   1.355       .  A
C487        C514   1.484       .  S
N488       C1195   1.355       .  A
C489        N490   1.362       .  A
C489        C499   1.478       .  S
N490       C1193   1.364       .  A
C491        N492   1.366   1_545  A
C491        N496   1.365       .  A
C491        C657   1.489       .  S
N492        C493   1.354       .  A
C493        N494   1.360   1_565  A
C493        C497   1.522       .  S
N494        C495   1.361       .  A
C495        N496   1.360       .  A
C497        C498   1.530       .  S
C497        C503   1.528       .  S
C497        C501   1.553       .  S
C498        H505   1.087   1_565  S
C498        C499   1.364       .  D
C499        C500   1.543       .  S
C500        C504   1.540       .  S
C500        C502   1.555       .  S
C500        H506   1.111       .  S
C501        H507   1.086       .  S
C501        C502   1.381       .  D
C502       C1189   1.506       .  S
C503        H508   1.087       .  S
C503        C504   1.362       .  D
C509        C510   1.530       .  S
C509        C515   1.528       .  S
C509        C513   1.536       .  S
C510        H517   1.087       .  S
C510        C511   1.361       .  D
C511        C512   1.553       .  S
C512        C516   1.547       .  S
C512        C514   1.552       .  S
C512        H518   1.111       .  S
C513        H519   1.082       .  S
C513        C514   1.373       .  D
C515        H520   1.088       .  S
C515        C516   1.357       .  D
O521        V529   1.910   1_556  S
O521        C531   1.266       .  A
O522        V529   1.909       .  S
O522        C532   1.269       .  A
O523        V529   1.899   1_556  S
O523        C533   1.262       .  A
O524        V529   1.891       .  S
O524        C534   1.264       .  A
O525        V530   1.913       .  S
O525        C534   1.267       .  A
O526        V530   1.901   1_556  S
O526        C533   1.268       .  A
O527        V530   1.906       .  S
O527        C532   1.264       .  A
O528        V530   1.903   1_556  S
O528        C531   1.267       .  A
V529        V530   2.083       .  T
C531        C671   1.492       .  S
C532        C643   1.492       .  S
C533        C699   1.486       .  S
C534        C626   1.490       .  S
O535        V543   1.894       .  S
O535        C545   1.266       .  A
O536        V543   1.900       .  S
O536        C546   1.263       .  A
O537        V543   1.890       .  S
O537        C547   1.263       .  A
O538        V543   1.890       .  S
O538        C548   1.263       .  A
O539        V544   1.912       .  S
O539        C548   1.268       .  A
O540        V544   1.916       .  S
O540        C547   1.269       .  A
O541        V544   1.909       .  S
O541        C546   1.268       .  A
O542        V544   1.906       .  S
O542        C545   1.265       .  A
V543        V544   2.083       .  T
C545        C612   1.488       .  S
C546        C682   1.491       .  S
C547        C598   1.492       .  S
C548        C654   1.487       .  S
C549        N550   1.371       .  A
C549        N554   1.368       .  A
C549        C640   1.492       .  S
N550        C551   1.361       .  A
C551        N552   1.350       .  A
C551        C587   1.480       .  S
N552        C553   1.349       .  A
C553        N554   1.359       .  A
C553        C580   1.477       .  S
C555        N556   1.360       .  A
C555        N560   1.355       .  A
C555        C601   1.497       .  S
N556        C557   1.366       .  A
C557        N558   1.362       .  A
C557       C1989   1.504   1_455  S
N558        C559   1.353       .  A
C559        N560   1.359       .  A
C559        C590   1.481       .  S
C561       N1982   1.364   1_455  A
C561        C629   1.494       .  S
N562        C563   1.360       .  A
C563       N1980   1.352       .  A
C563        C592   1.475       .  S
N564       C1271   1.352       .  A
C565        N566   1.353       .  A
C565        C575   1.468       .  S
N566       C1269   1.365       .  A
C567        N568   1.353       .  A
C567        N572   1.361       .  A
C567        C615   1.495       .  S
N568        C569   1.359       .  A
C569        N570   1.353       .  A
N570        C571   1.356       .  A
C571        N572   1.365       .  A
C571        C578   1.473       .  S
C573       C1265   1.504       .  S
C573        C574   1.529       .  S
C573        C579   1.527       .  S
C573        C577   1.534       .  S
C574       H1289   1.087       .  S
C574        C575   1.365       .  D
C575        C576   1.536       .  S
C576        C580   1.540       .  S
C576        C578   1.547       .  S
C576        H582   1.111       .  S
C577        H583   1.083       .  S
C577        C578   1.366       .  D
C579        H584   1.087       .  S
C579        C580   1.366       .  D
H581       C1990   1.087       .  S
C585        C586   1.525       .  S
C585        C591   1.521       .  S
C585        C589   1.526       .  S
C586        H593   1.087       .  S
C586        C587   1.372       .  D
C587        C588   1.550       .  S
C588        C592   1.552       .  S
C588        C590   1.550       .  S
C588        H594   1.111       .  S
C589        H595   1.082       .  S
C589        C590   1.357       .  D
C591        C592   1.369       .  D
C597        C598   1.407       .  A
C597        C602   1.403       .  A
C597        H604   1.086       .  S
C598       C1307   1.414       .  A
C599       C2014   1.414       .  A
C599        C600   1.403       .  A
C599        N606   1.428       .  S
C600        C601   1.408       .  A
C600        H605   1.085       .  S
C601       C2018   1.413       .  A
C602       C1309   1.413       .  A
C602        N603   1.427       .  S
N603        O607   1.261       .  A
N603        O608   1.262       .  A
N606        O610   1.262       .  A
N606        O609   1.262       .  A
C611        C612   1.403       .  A
C611        C616   1.396       .  A
C611        H618   1.085       .  S
C613        C614   1.406       .  A
C613        N620   1.428       .  S
C614        C615   1.406       .  A
C614        H619   1.084       .  S
C616        N617   1.429       .  S
N617        O621   1.261       .  A
N617        O622   1.262       .  A
N620        O624   1.262       .  A
N620        O623   1.262       .  A
C625        C626   1.407       .  A
C625        C630   1.401       .  A
C625        H632   1.085   1_565  S
C626        C627   1.414   1_455  A
C627        C628   1.401       .  A
C627        N634   1.429       .  S
C628        C629   1.409   1_655  A
C628        H633   1.084       .  S
C629        C630   1.413       .  A
N631        O635   1.262       .  A
N631        O636   1.262       .  A
N634        O638   1.262       .  A
N634        O637   1.262       .  A
C639        C640   1.407       .  A
C639        C644   1.406       .  A
C639        H646   1.078       .  S
C640        C641   1.413       .  A
C641        C642   1.403       .  A
C641        N648   1.429       .  S
C642        C643   1.406       .  A
C642        H647   1.080       .  S
C643        C644   1.415       .  A
C644        N645   1.429       .  S
N645        O649   1.262       .  A
N645        O650   1.262       .  A
N648        O652   1.262       .  A
N648        O651   1.262       .  A
C653        C654   1.408       .  A
C653        C658   1.401       .  A
C653        H660   1.085       .  S
C655        C656   1.396       .  A
C655        N662   1.424       .  S
C656        C657   1.404   1_565  A
C656        H661   1.085       .  S
C658        N659   1.431       .  S
N659        O663   1.262       .  A
N659        O664   1.262       .  A
N662        O666   1.261       .  A
N662        O665   1.262       .  A
C667        C668   1.407       .  A
C667        C672   1.403       .  A
C667        H674   1.085   1_565  S
C668        C669   1.413       .  A
C669        C670   1.404       .  A
C669       N2092   1.429       .  S
C670        C671   1.408       .  A
C670        H675   1.085       .  S
C671        C672   1.414       .  A
C672        N673   1.429   1_565  S
N673        O677   1.262       .  A
N673        O678   1.262       .  A
N676       C1377   1.429       .  S
N676        O680   1.262       .  A
N676        O679   1.262       .  A
C681        C682   1.404       .  A
C681       C1394   1.402       .  A
C681        H688   1.084       .  S
C682       C1391   1.414       .  A
C683       C2098   1.414       .  A
C683        C684   1.405       .  A
C683        N690   1.427       .  S
C684        C685   1.405       .  A
C684        H689   1.084       .  S
C685        C686   1.419   1_655  A
C686       C2097   1.402       .  A
C686        N687   1.430       .  S
N687       O2107   1.262   1_455  A
N687        O692   1.261       .  A
N690        O694   1.262   1_655  A
N690       O2109   1.261       .  A
O691       N1395   1.262       .  A
O693       N1398   1.261       .  A
C695        C696   1.405       .  A
C695        C700   1.401       .  A
C695        H702   1.086       .  S
C696        C697   1.417       .  A
C697        C698   1.399       .  A
C697        N704   1.428       .  S
C698        C699   1.401       .  A
C698        H703   1.086       .  S
C699        C700   1.417       .  A
C700        N701   1.429       .  S
N701        O705   1.262       .  A
N701        O706   1.262       .  A
N704        O708   1.262       .  A
N704        O707   1.262       .  A
C709        N710   1.364       .  A
C709        N714   1.370       .  A
C709        C932   1.492       .  S
N710        C711   1.357       .  A
C711        N712   1.351       .  A
C711        C745   1.500       .  S
N712        C713   1.348       .  A
C713        N714   1.360       .  A
C713        C740   1.473       .  S
C715        N716   1.370       .  A
C715        N720   1.357       .  A
C715        C921   1.491       .  S
N716        C717   1.368       .  A
C717        N718   1.364       .  A
N718        C719   1.365       .  A
C719        N720   1.352       .  A
C719        C747   1.480       .  S
C721        N958   1.362       .  A
C721        C904   1.494       .  S
N722       C1193   1.362   1_545  A
N722        C723   1.359       .  A
C723        C750   1.484       .  S
N724       C1431   1.356   1_565  A
N724       C1197   1.360       .  A
C725        N960   1.360       .  A
C725        N726   1.362       .  A
C725        C735   1.478       .  S
N726       C1429   1.364       .  A
C727        N728   1.366       .  A
C727        N732   1.365       .  A
C727        C893   1.490       .  S
N728        C729   1.355       .  A
C729        N730   1.359       .  A
C729        C733   1.522       .  S
N730        C731   1.361       .  A
C731        N732   1.360       .  A
C731        C988   1.478       .  S
C733        C734   1.530       .  S
C733        C739   1.528       .  S
C733        C737   1.552       .  S
C734        H741   1.087       .  S
C734        C735   1.365       .  D
C735        C736   1.543       .  S
C736        C740   1.540       .  S
C736        C738   1.556       .  S
C736        H742   1.111       .  S
C737        H743   1.086       .  S
C737        C738   1.381       .  D
C738       C1425   1.505       .  S
C739        H744   1.087       .  S
C739        C740   1.363       .  D
C745        C746   1.530       .  S
C745        C751   1.528       .  S
C745        C749   1.536       .  S
C746        H753   1.087       .  S
C746        C747   1.361       .  D
C747        C748   1.554       .  S
C748        C752   1.547       .  S
C748        C750   1.552       .  S
C748        H754   1.111       .  S
C749        H755   1.082       .  S
C749        C750   1.373       .  D
C751        H756   1.088       .  S
C751        C752   1.356       .  D
C752       C1203   1.479       .  S
O757        V765   1.910   1_556  S
O757        C767   1.266       .  A
O758        V765   1.908       .  S
O758        C768   1.269       .  A
O759        V765   1.898   1_556  S
O759        C769   1.262       .  A
O760        V765   1.890       .  S
O760        C770   1.264       .  A
O761        V766   1.914       .  S
O761        C770   1.267       .  A
O762        V766   1.901   1_556  S
O762        C769   1.268       .  A
O763        V766   1.906       .  S
O763        C768   1.264       .  A
O764        V766   1.903   1_556  S
O764        C767   1.267       .  A
V765        V766   2.083       .  T
C767        C907   1.492       .  S
C768        C879   1.490       .  S
C769        C935   1.485       .  S
C770        C862   1.490       .  S
O771        V779   1.898       .  S
O771        C781   1.267       .  A
O772        V779   1.901       .  S
O772        C782   1.263       .  A
O773        V779   1.889       .  S
O773        C783   1.263       .  A
O774        V779   1.892       .  S
O774        C784   1.263       .  A
O775        V780   1.909       .  S
O775        C784   1.268       .  A
O776        V780   1.914       .  S
O776        C783   1.268       .  A
O777        V780   1.907       .  S
O777        C782   1.268       .  A
O778        V780   1.906   1_565  S
O778        C781   1.265   1_565  A
V779        V780   2.083       .  T
C781        C848   1.490   1_545  S
C782        C918   1.489       .  S
C783        C834   1.490       .  S
C784        C890   1.487       .  S
C785        N786   1.370       .  A
C785        N790   1.367       .  A
C785        C876   1.489       .  S
N786        C787   1.361       .  A
C787        N788   1.351       .  A
C787        C823   1.479       .  S
N788        C789   1.349       .  A
C789        N790   1.359       .  A
C789        C816   1.476       .  S
C791        N792   1.359       .  A
C791        N796   1.354       .  A
C791        C837   1.495       .  S
N792        C793   1.365       .  A
C793        N794   1.362       .  A
N794        C795   1.352       .  A
C795        N796   1.358       .  A
C795        C826   1.479       .  S
C797       N1034   1.368       .  A
C797        C865   1.494       .  S
N798       C1269   1.369       .  A
N798        C799   1.362       .  A
C799        C828   1.476       .  S
N800       C1507   1.353       .  A
N800       C1273   1.349       .  A
C801       N1036   1.350       .  A
C801        N802   1.354       .  A
C801        C811   1.469       .  S
N802       C1505   1.365       .  A
C803        N804   1.352       .  A
C803        N808   1.361       .  A
C803        C851   1.496       .  S
N804        C805   1.359       .  A
C805        N806   1.353       .  A
C805       C1057   1.505       .  S
N806        C807   1.357       .  A
C807        N808   1.365       .  A
C807        C814   1.474       .  S
C809       C1501   1.502       .  S
C809        C810   1.528       .  S
C809        C815   1.526       .  S
C809        C813   1.534       .  S
C810       H1525   1.087       .  S
C810        C811   1.366       .  D
C811        C812   1.537       .  S
C812        C816   1.541       .  S
C812        C814   1.548       .  S
C812        H818   1.111       .  S
C813        H819   1.083       .  S
C813        C814   1.365       .  D
C815        H820   1.087       .  S
C815        C816   1.366       .  D
C821       C1277   1.506       .  S
C821        C822   1.525   1_565  S
C821        C827   1.522       .  S
C821        C825   1.524   1_565  S
C822        H829   1.087       .  S
C822        C823   1.371       .  D
C823        C824   1.549       .  S
C824        C828   1.552   1_545  S
C824        C826   1.550       .  S
C824        H830   1.111       .  S
C825        H831   1.083       .  S
C825        C826   1.357       .  D
C827       H1304   1.087       .  S
C827        C828   1.370       .  D
H832       C1063   1.087       .  S
C833        C834   1.407       .  A
C833        C838   1.402       .  A
C833        H840   1.086       .  S
C834       C1543   1.414       .  A
C835        C836   1.402       .  A
C835        N842   1.429       .  S
C836        C837   1.408       .  A
C836        H841   1.085       .  S
C838       C1545   1.413       .  A
C838        N839   1.427       .  S
N839        O843   1.261       .  A
N839        O844   1.262       .  A
N842        O846   1.262       .  A
N842        O845   1.262   1_545  A
C847        C848   1.403   1_545  A
C847        C852   1.398       .  A
C847        H854   1.085       .  S
C848       C1321   1.415       .  A
C849       C1084   1.416       .  A
C849        C850   1.406       .  A
C849        N856   1.429       .  S
C850        C851   1.406       .  A
C850        H855   1.083       .  S
C851       C1088   1.419       .  A
C852       C1323   1.418   1_545  A
C852        N853   1.429       .  S
N853        O857   1.261       .  A
N853        O858   1.262       .  A
N856        O860   1.262       .  A
N856        O859   1.262       .  A
C861        C862   1.407       .  A
C861        C866   1.399       .  A
C861        H868   1.085       .  S
C862        C863   1.414       .  A
C863        C864   1.402       .  A
C863        N870   1.429       .  S
C864        C865   1.410       .  A
C864        H869   1.085       .  S
C865        C866   1.415       .  A
C866       N1103   1.429       .  S
N867       C1338   1.429   1_545  S
N867        O871   1.262       .  A
N867        O872   1.262       .  A
N870        O874   1.262       .  A
N870        O873   1.262       .  A
C875        C876   1.406       .  A
C875        C880   1.406       .  A
C875        H882   1.079       .  S
C876        C877   1.412       .  A
C877        C878   1.402       .  A
C877        N884   1.429       .  S
C878        C879   1.406       .  A
C878        H883   1.080       .  S
C879        C880   1.415       .  A
C880        N881   1.429       .  S
N881        O885   1.262       .  A
N881        O886   1.262       .  A
N884        O888   1.262       .  A
N884        O887   1.262       .  A
C889        C890   1.408       .  A
C889        C894   1.403       .  A
C889        H896   1.085       .  S
C890       C1363   1.409   1_545  A
C891       C1126   1.410       .  A
C891        C892   1.397       .  A
C891        N898   1.425       .  S
C892        C893   1.404       .  A
C892        H897   1.085       .  S
C893       C1130   1.417       .  A
C894       C1365   1.417       .  A
C894        N895   1.430       .  S
N895        O899   1.262       .  A
N895        O900   1.262       .  A
N898        O902   1.262       .  A
N898        O901   1.262       .  A
C903        C904   1.408       .  A
C903        C908   1.405       .  A
C903        H910   1.085       .  S
C904        C905   1.413       .  A
C905        C906   1.404       .  A
C906        C907   1.408       .  A
C906        H911   1.085       .  S
C907        C908   1.414       .  A
C908        N909   1.429       .  S
N909        O913   1.262       .  A
N909        O914   1.262       .  A
N912       C1613   1.429       .  S
N912        O916   1.261       .  A
N912        O915   1.262       .  A
C917        C918   1.404       .  A
C917       C1630   1.401       .  A
C917        H924   1.084       .  S
C918       C1627   1.414       .  A
C919        C920   1.407       .  A
C919        N926   1.429       .  S
C920        C921   1.405       .  A
C920        H925   1.084       .  S
C921        C922   1.417       .  A
C922        N923   1.430       .  S
N923        O928   1.262       .  A
N926        O930   1.262       .  A
O927       N1631   1.262       .  A
O929       N1634   1.261       .  A
C931        C932   1.405       .  A
C931        C936   1.401       .  A
C931        H938   1.085       .  S
C932        C933   1.418       .  A
C933        C934   1.399       .  A
C933        N940   1.428       .  S
C934        C935   1.401       .  A
C934        H939   1.086       .  S
C935        C936   1.417       .  A
C936        N937   1.429       .  S
N937        O941   1.262       .  A
N937        O942   1.262       .  A
N940        O944   1.262       .  A
N940        O943   1.262       .  A
C945        N946   1.363       .  A
C945        N950   1.370       .  A
C945       C1168   1.492       .  S
N946        C947   1.357       .  A
C947        N948   1.351       .  A
C947        C981   1.499       .  S
N948        C949   1.349       .  A
C949        N950   1.360       .  A
C949        C976   1.472       .  S
C951        N952   1.369       .  A
C951        N956   1.358       .  A
C951       C1157   1.488       .  S
N952        C953   1.368       .  A
C953        N954   1.363       .  A
N954        C955   1.364       .  A
C955        N956   1.353       .  A
C955        C983   1.481       .  S
C957       N1194   1.362       .  A
C957       C1140   1.493       .  S
N958        C959   1.360       .  A
C959        C986   1.484       .  S
N960       C1667   1.355       .  A
C961       N1196   1.359       .  A
C961        N962   1.362       .  A
C961        C971   1.476       .  S
N962       C1665   1.364       .  A
C963        N964   1.365       .  A
C963        N968   1.365       .  A
C963       C1129   1.488       .  S
N964        C965   1.355       .  A
C965        N966   1.359       .  A
C965        C969   1.520       .  S
N966        C967   1.360       .  A
C967        N968   1.360       .  A
C967       C1224   1.478       .  S
C969        C970   1.530       .  S
C969        C975   1.528       .  S
C969        C973   1.551       .  S
C970        H977   1.087       .  S
C970        C971   1.364       .  D
C971        C972   1.542       .  S
C972        C976   1.540       .  S
C972        C974   1.555       .  S
C972        H978   1.111       .  S
C973        H979   1.086       .  S
C973        C974   1.379       .  D
C974       C1661   1.503       .  S
C975        H980   1.087       .  S
C975        C976   1.363       .  D
C981        C982   1.529       .  S
C981        C987   1.527       .  S
C981        C985   1.535       .  S
C982        H989   1.087       .  S
C982        C983   1.361       .  D
C983        C984   1.554       .  S
C984        C988   1.547       .  S
C984        C986   1.552       .  S
C984        H990   1.110       .  S
C985        H991   1.082       .  S
C985        C986   1.372       .  D
C987        H992   1.088       .  S
C987        C988   1.357       .  D
O993       V1001   1.908   1_556  S
O993       C1003   1.266       .  A
O994       V1001   1.906       .  S
O994       C1004   1.268       .  A
O995       V1001   1.897   1_556  S
O995       C1005   1.262       .  A
O996       V1001   1.890       .  S
O996       C1006   1.264       .  A
O997       V1002   1.913       .  S
O997       C1006   1.267       .  A
O998       V1002   1.900   1_556  S
O998       C1005   1.268       .  A
O999       V1002   1.906       .  S
O999       C1004   1.264       .  A
O1000      V1002   1.902   1_556  S
O1000      C1003   1.267       .  A
V1001      V1002   2.084       .  T
C1003      C1143   1.491       .  S
C1004      C1115   1.489       .  S
C1005      C1171   1.485       .  S
C1006      C1098   1.489       .  S
O1007      V1015   1.900       .  S
O1007      C1017   1.267       .  A
O1008      V1015   1.907       .  S
O1008      C1018   1.265       .  A
O1009      V1015   1.890       .  S
O1009      C1019   1.264       .  A
O1010      V1015   1.895       .  S
O1010      C1020   1.264       .  A
O1011      V1016   1.910       .  S
O1011      C1020   1.267       .  A
O1012      V1016   1.913       .  S
O1012      C1019   1.268       .  A
O1013      V1016   1.905       .  S
O1013      C1018   1.267       .  A
O1014      V1016   1.905       .  S
O1014      C1017   1.264       .  A
V1015      V1016   2.084       .  T
C1017      C1084   1.491       .  S
C1018      C1154   1.485       .  S
C1019      C1070   1.490       .  S
C1020      C1126   1.489       .  S
C1021      N1022   1.370       .  A
C1021      N1026   1.367       .  A
C1021      C1112   1.489       .  S
N1022      C1023   1.361       .  A
C1023      N1024   1.350       .  A
C1023      C1059   1.479       .  S
N1024      C1025   1.349       .  A
C1025      N1026   1.358       .  A
C1025      C1052   1.475       .  S
C1027      N1028   1.359       .  A
C1027      N1032   1.354       .  A
C1027      C1073   1.495       .  S
N1028      C1029   1.365       .  A
C1029      N1030   1.362       .  A
N1030      C1031   1.353       .  A
C1031      N1032   1.359       .  A
C1031      C1062   1.480       .  S
C1033      N1270   1.368       .  A
C1033      C1101   1.493       .  S
N1034      C1035   1.360       .  A
C1035      C1064   1.474       .  S
N1036      C1743   1.352       .  A
C1037      N1272   1.350       .  A
C1037      N1038   1.353       .  A
C1037      C1047   1.467       .  S
N1038      C1741   1.364       .  A
C1039      N1040   1.352       .  A
C1039      N1044   1.360       .  A
C1039      C1087   1.493       .  S
N1040      C1041   1.358       .  A
C1041      N1042   1.354       .  A
C1041      C1293   1.506       .  S
N1042      C1043   1.357       .  A
C1043      N1044   1.365       .  A
C1043      C1050   1.474       .  S
C1045      C1737   1.502       .  S
C1045      C1046   1.528       .  S
C1045      C1051   1.526       .  S
C1045      C1049   1.534       .  S
C1046      H1761   1.087       .  S
C1046      C1047   1.365       .  D
C1047      C1048   1.537       .  S
C1048      C1052   1.541       .  S
C1048      C1050   1.546       .  S
C1048      H1054   1.111       .  S
C1049      H1055   1.082       .  S
C1049      C1050   1.366       .  D
C1051      H1056   1.087       .  S
C1051      C1052   1.366       .  D
C1057      C1058   1.525       .  S
C1057      C1063   1.521       .  S
C1057      C1061   1.525       .  S
C1058      H1065   1.087       .  S
C1058      C1059   1.372       .  D
C1059      C1060   1.550       .  S
C1060      C1064   1.551       .  S
C1060      C1062   1.550       .  S
C1060      H1066   1.111       .  S
C1061      H1067   1.082       .  S
C1061      C1062   1.357       .  D
C1063      C1064   1.369       .  D
H1068      C1299   1.087       .  S
C1069      C1070   1.406       .  A
C1069      C1074   1.402       .  A
C1069      H1076   1.086       .  S
C1070      C1779   1.414       .  A
C1071      C1072   1.402       .  A
C1071      N1078   1.428       .  S
C1072      C1073   1.408       .  A
C1072      H1077   1.085       .  S
C1074      C1781   1.413       .  A
C1074      N1075   1.426       .  S
N1075      O1079   1.261       .  A
N1075      O1080   1.262       .  A
N1078      O1082   1.262       .  A
N1078      O1081   1.262       .  A
C1083      C1084   1.403       .  A
C1083      C1088   1.398       .  A
C1083      H1090   1.085       .  S
C1085      C1320   1.415       .  A
C1085      C1086   1.406       .  A
C1085      N1092   1.429       .  S
C1086      C1087   1.406       .  A
C1086      H1091   1.084       .  S
C1087      C1324   1.418       .  A
C1088      N1089   1.429       .  S
N1089      O1093   1.261       .  A
N1089      O1094   1.262       .  A
N1092      O1096   1.262       .  A
N1092      O1095   1.262       .  A
C1097      C1098   1.407       .  A
C1097      C1102   1.400       .  A
C1097      H1104   1.085       .  S
C1098      C1099   1.413       .  A
C1099      C1100   1.401       .  A
C1099      N1106   1.429       .  S
C1100      C1101   1.409       .  A
C1100      H1105   1.084       .  S
C1101      C1102   1.414       .  A
C1102      N1339   1.429       .  S
N1103      O1107   1.262       .  A
N1103      O1108   1.262       .  A
N1106      O1110   1.262       .  A
N1106      O1109   1.262       .  A
C1111      C1112   1.407       .  A
C1111      C1116   1.406       .  A
C1111      H1118   1.078       .  S
C1112      C1113   1.412       .  A
C1113      C1114   1.401       .  A
C1113      N1120   1.429       .  S
C1114      C1115   1.405       .  A
C1114      H1119   1.080       .  S
C1115      C1116   1.414       .  A
C1116      N1117   1.429       .  S
N1117      O1121   1.262       .  A
N1117      O1122   1.262       .  A
N1120      O1124   1.262       .  A
N1120      O1123   1.262       .  A
C1125      C1126   1.408       .  A
C1125      C1130   1.404       .  A
C1125      H1132   1.085       .  S
C1127      C1362   1.410       .  A
C1127      C1128   1.398       .  A
C1127      N1134   1.426       .  S
C1128      C1129   1.405       .  A
C1128      H1133   1.086       .  S
C1129      C1366   1.416       .  A
C1130      N1131   1.430       .  S
N1131      O1135   1.262       .  A
N1131      O1136   1.262       .  A
N1134      O1138   1.262       .  A
N1134      O1137   1.261       .  A
C1139      C1140   1.407       .  A
C1139      C1144   1.403       .  A
C1139      H1146   1.085       .  S
C1140      C1141   1.413       .  A
C1141      C1142   1.403       .  A
C1142      C1143   1.408       .  A
C1142      H1147   1.085       .  S
C1143      C1144   1.414       .  A
C1144      N1145   1.429       .  S
N1145      O1149   1.262       .  A
N1145      O1150   1.262       .  A
N1148      C1849   1.429       .  S
N1148      O1152   1.261       .  A
N1148      O1151   1.262       .  A
C1153      C1154   1.402       .  A
C1153      C1866   1.399       .  A
C1153      H1160   1.085       .  S
C1154      C1863   1.412       .  A
C1155      C1156   1.409       .  A
C1155      N1162   1.428       .  S
C1156      C1157   1.406       .  A
C1156      H1161   1.084       .  S
C1157      C1158   1.414       .  A
C1158      N1159   1.430       .  S
N1159      O1164   1.262       .  A
N1162      O1166   1.262       .  A
O1163      N1867   1.262       .  A
O1165      N1870   1.261       .  A
C1167      C1168   1.405       .  A
C1167      C1172   1.400       .  A
C1167      H1174   1.085       .  S
C1168      C1169   1.418       .  A
C1169      C1170   1.399       .  A
C1169      N1176   1.428       .  S
C1170      C1171   1.401       .  A
C1170      H1175   1.086       .  S
C1171      C1172   1.416       .  A
C1172      N1173   1.429       .  S
N1173      O1177   1.262       .  A
N1173      O1178   1.262       .  A
N1176      O1180   1.262       .  A
N1176      O1179   1.262       .  A
C1181      N1182   1.364       .  A
C1181      N1186   1.369       .  A
C1181      C1404   1.492       .  S
N1182      C1183   1.357       .  A
C1183      N1184   1.351       .  A
C1183      C1217   1.500       .  S
N1184      C1185   1.348       .  A
C1185      N1186   1.360       .  A
C1185      C1212   1.471       .  S
C1187      N1188   1.371       .  A
C1187      N1192   1.358       .  A
C1187      C1393   1.494       .  S
N1188      C1189   1.368       .  A
C1189      N1190   1.364       .  A
N1190      C1191   1.364       .  A
C1191      N1192   1.352       .  A
C1191      C1219   1.481       .  S
C1193      C1376   1.492       .  S
N1194      C1195   1.359       .  A
C1195      C1222   1.483       .  S
N1196      C1903   1.355       .  A
C1197      N1198   1.362       .  A
C1197      C1207   1.478       .  S
N1198      C1901   1.364       .  A
C1199      N1200   1.366   1_545  A
C1199      N1204   1.365       .  A
C1199      C1365   1.489       .  S
N1200      C1201   1.354       .  A
C1201      N1202   1.360   1_565  A
C1201      C1205   1.522       .  S
N1202      C1203   1.361       .  A
C1203      N1204   1.360       .  A
C1205      C1206   1.530       .  S
C1205      C1211   1.528       .  S
C1205      C1209   1.553       .  S
C1206      H1213   1.087   1_565  S
C1206      C1207   1.364       .  D
C1207      C1208   1.542       .  S
C1208      C1212   1.540       .  S
C1208      C1210   1.555       .  S
C1208      H1214   1.111       .  S
C1209      H1215   1.086       .  S
C1209      C1210   1.381       .  D
C1210      C1897   1.506       .  S
C1211      H1216   1.087       .  S
C1211      C1212   1.362       .  D
C1217      C1218   1.530       .  S
C1217      C1223   1.528       .  S
C1217      C1221   1.536       .  S
C1218      H1225   1.087       .  S
C1218      C1219   1.361       .  D
C1219      C1220   1.553       .  S
C1220      C1224   1.547       .  S
C1220      C1222   1.552       .  S
C1220      H1226   1.111       .  S
C1221      H1227   1.082       .  S
C1221      C1222   1.373       .  D
C1223      H1228   1.088       .  S
C1223      C1224   1.357       .  D
O1229      V1237   1.910   1_556  S
O1229      C1239   1.266       .  A
O1230      V1237   1.909       .  S
O1230      C1240   1.269       .  A
O1231      V1237   1.899   1_556  S
O1231      C1241   1.262       .  A
O1232      V1237   1.891       .  S
O1232      C1242   1.264       .  A
O1233      V1238   1.913       .  S
O1233      C1242   1.267       .  A
O1234      V1238   1.901   1_556  S
O1234      C1241   1.268       .  A
O1235      V1238   1.906       .  S
O1235      C1240   1.264       .  A
O1236      V1238   1.903   1_556  S
O1236      C1239   1.267       .  A
V1237      V1238   2.083       .  T
C1239      C1379   1.492       .  S
C1240      C1351   1.492       .  S
C1241      C1407   1.486       .  S
C1242      C1334   1.490       .  S
O1243      V1251   1.894       .  S
O1243      C1253   1.266       .  A
O1244      V1251   1.900       .  S
O1244      C1254   1.263       .  A
O1245      V1251   1.890       .  S
O1245      C1255   1.263       .  A
O1246      V1251   1.890       .  S
O1246      C1256   1.263       .  A
O1247      V1252   1.914       .  S
O1247      C1256   1.268       .  A
O1248      V1252   1.917       .  S
O1248      C1255   1.269       .  A
O1249      V1252   1.909       .  S
O1249      C1254   1.268       .  A
O1250      V1252   1.906       .  S
O1250      C1253   1.265       .  A
V1251      V1252   2.083       .  T
C1253      C1320   1.488       .  S
C1254      C1390   1.491       .  S
C1255      C1306   1.493       .  S
C1256      C1362   1.487       .  S
C1257      N1258   1.371       .  A
C1257      N1262   1.368       .  A
C1257      C1348   1.492       .  S
N1258      C1259   1.361       .  A
C1259      N1260   1.350       .  A
C1259      C1295   1.480       .  S
N1260      C1261   1.349       .  A
C1261      N1262   1.359       .  A
C1261      C1288   1.477       .  S
C1263      N1264   1.360       .  A
C1263      N1268   1.355       .  A
C1263      C1309   1.496       .  S
N1264      C1265   1.366       .  A
C1265      N1266   1.362       .  A
N1266      C1267   1.353       .  A
C1267      N1268   1.359       .  A
C1267      C1298   1.480       .  S
C1269      C1337   1.494       .  S
N1270      C1271   1.360       .  A
C1271      C1300   1.474       .  S
N1272      C1979   1.352       .  A
C1273      N1274   1.353       .  A
C1273      C1283   1.468       .  S
N1274      C1977   1.364       .  A
C1275      N1276   1.353       .  A
C1275      N1280   1.361       .  A
C1275      C1323   1.495       .  S
N1276      C1277   1.359       .  A
C1277      N1278   1.353       .  A
N1278      C1279   1.357       .  A
C1279      N1280   1.365       .  A
C1279      C1286   1.473       .  S
C1281      C1973   1.504       .  S
C1281      C1282   1.529       .  S
C1281      C1287   1.527       .  S
C1281      C1285   1.534       .  S
C1282      H1997   1.087       .  S
C1282      C1283   1.366       .  D
C1283      C1284   1.536       .  S
C1284      C1288   1.540       .  S
C1284      C1286   1.547       .  S
C1284      H1290   1.111       .  S
C1285      H1291   1.083       .  S
C1285      C1286   1.366       .  D
C1287      H1292   1.087       .  S
C1287      C1288   1.366       .  D
C1293      C1294   1.525       .  S
C1293      C1299   1.521       .  S
C1293      C1297   1.526       .  S
C1294      H1301   1.087       .  S
C1294      C1295   1.372       .  D
C1295      C1296   1.550       .  S
C1296      C1300   1.552       .  S
C1296      C1298   1.550       .  S
C1296      H1302   1.111       .  S
C1297      H1303   1.082       .  S
C1297      C1298   1.357       .  D
C1299      C1300   1.368       .  D
C1305      C1306   1.407       .  A
C1305      C1310   1.403       .  A
C1305      H1312   1.086       .  S
C1306      C2015   1.414       .  A
C1307      C1308   1.403       .  A
C1307      N1314   1.429       .  S
C1308      C1309   1.408       .  A
C1308      H1313   1.085       .  S
C1310      C2017   1.413       .  A
C1310      N1311   1.427       .  S
N1311      O1315   1.261       .  A
N1311      O1316   1.262       .  A
N1314      O1318   1.262       .  A
N1314      O1317   1.262       .  A
C1319      C1320   1.403       .  A
C1319      C1324   1.396       .  A
C1319      H1326   1.085       .  S
C1321      C1322   1.406       .  A
C1321      N1328   1.428       .  S
C1322      C1323   1.406       .  A
C1322      H1327   1.084       .  S
C1324      N1325   1.429       .  S
N1325      O1329   1.261       .  A
N1325      O1330   1.262       .  A
N1328      O1332   1.262       .  A
N1328      O1331   1.262       .  A
C1333      C1334   1.407       .  A
C1333      C1338   1.401       .  A
C1333      H1340   1.085   1_565  S
C1334      C1335   1.414       .  A
C1335      C1336   1.401       .  A
C1335      N1342   1.429       .  S
C1336      C1337   1.410       .  A
C1336      H1341   1.084       .  S
C1337      C1338   1.413       .  A
N1339      O1343   1.262       .  A
N1339      O1344   1.262       .  A
N1342      O1346   1.262       .  A
N1342      O1345   1.262       .  A
C1347      C1348   1.407       .  A
C1347      C1352   1.406       .  A
C1347      H1354   1.078       .  S
C1348      C1349   1.413       .  A
C1349      C1350   1.403       .  A
C1349      N1356   1.429       .  S
C1350      C1351   1.406       .  A
C1350      H1355   1.080       .  S
C1351      C1352   1.415       .  A
C1352      N1353   1.429       .  S
N1353      O1357   1.262       .  A
N1353      O1358   1.262       .  A
N1356      O1360   1.262       .  A
N1356      O1359   1.262       .  A
C1361      C1362   1.408       .  A
C1361      C1366   1.401       .  A
C1361      H1368   1.085       .  S
C1363      C1364   1.396       .  A
C1363      N1370   1.424       .  S
C1364      C1365   1.404   1_565  A
C1364      H1369   1.085       .  S
C1366      N1367   1.430       .  S
N1367      O1371   1.262       .  A
N1367      O1372   1.262       .  A
N1370      O1374   1.261       .  A
N1370      O1373   1.262       .  A
C1375      C1376   1.407       .  A
C1375      C1380   1.403       .  A
C1375      H1382   1.085   1_565  S
C1376      C1377   1.413       .  A
C1377      C1378   1.404       .  A
C1378      C1379   1.408       .  A
C1378      H1383   1.085       .  S
C1379      C1380   1.413       .  A
C1380      N1381   1.429   1_565  S
N1381      O1385   1.262       .  A
N1381      O1386   1.262       .  A
N1384      C2085   1.429       .  S
N1384      O1388   1.262       .  A
N1384      O1387   1.262       .  A
C1389      C1390   1.404       .  A
C1389      C2102   1.402       .  A
C1389      H1396   1.084       .  S
C1390      C2099   1.414       .  A
C1391      C1392   1.406       .  A
C1391      N1398   1.428       .  S
C1392      C1393   1.405       .  A
C1392      H1397   1.084       .  S
C1393      C1394   1.419       .  A
C1394      N1395   1.430       .  S
N1395      O1400   1.261       .  A
N1398      O1402   1.262       .  A
O1399      N2103   1.262       .  A
O1401      N2106   1.261       .  A
C1403      C1404   1.405       .  A
C1403      C1408   1.401       .  A
C1403      H1410   1.086       .  S
C1404      C1405   1.417       .  A
C1405      C1406   1.399       .  A
C1405      N1412   1.428       .  S
C1406      C1407   1.401       .  A
C1406      H1411   1.086       .  S
C1407      C1408   1.417       .  A
C1408      N1409   1.429       .  S
N1409      O1413   1.262       .  A
N1409      O1414   1.262       .  A
N1412      O1416   1.262       .  A
N1412      O1415   1.262       .  A
C1417      N1418   1.364       .  A
C1417      N1422   1.370       .  A
C1417      C1640   1.492       .  S
N1418      C1419   1.357       .  A
C1419      N1420   1.351       .  A
C1419      C1453   1.500       .  S
N1420      C1421   1.348       .  A
C1421      N1422   1.360       .  A
C1421      C1448   1.473       .  S
C1423      N1424   1.370       .  A
C1423      N1428   1.357       .  A
C1423      C1629   1.491       .  S
N1424      C1425   1.368       .  A
C1425      N1426   1.364       .  A
N1426      C1427   1.365       .  A
C1427      N1428   1.352       .  A
C1427      C1455   1.481       .  S
C1429      N1666   1.362       .  A
C1429      C1612   1.494       .  S
N1430      C1901   1.362   1_545  A
N1430      C1431   1.359       .  A
C1431      C1458   1.485       .  S
N1432      C1905   1.360   1_455  A
C1433      N1668   1.360   1_655  A
C1433      N1434   1.362       .  A
C1433      C1443   1.478       .  S
C1435      N1436   1.366       .  A
C1435      N1440   1.365       .  A
C1435      C1601   1.490       .  S
N1436      C1437   1.355       .  A
C1437      N1438   1.359       .  A
C1437      C1441   1.522       .  S
N1438      C1439   1.361       .  A
C1439      N1440   1.360       .  A
C1439      C1696   1.478       .  S
C1441      C1442   1.530       .  S
C1441      C1447   1.528       .  S
C1441      C1445   1.552       .  S
C1442      H1449   1.087       .  S
C1442      C1443   1.365       .  D
C1443      C1444   1.543       .  S
C1444      C1448   1.540       .  S
C1444      C1446   1.556       .  S
C1444      H1450   1.111       .  S
C1445      H1451   1.086       .  S
C1445      C1446   1.380       .  D
C1447      H1452   1.087       .  S
C1447      C1448   1.363       .  D
C1453      C1454   1.530       .  S
C1453      C1459   1.527       .  S
C1453      C1457   1.536       .  S
C1454      H1461   1.087       .  S
C1454      C1455   1.361       .  D
C1455      C1456   1.554       .  S
C1456      C1460   1.547       .  S
C1456      C1458   1.552       .  S
C1456      H1462   1.111       .  S
C1457      H1463   1.082       .  S
C1457      C1458   1.373       .  D
C1459      H1464   1.088       .  S
C1459      C1460   1.356       .  D
C1460      C1911   1.479       .  S
O1465      V1473   1.910   1_556  S
O1465      C1475   1.266       .  A
O1466      V1473   1.908       .  S
O1466      C1476   1.269       .  A
O1467      V1473   1.898   1_556  S
O1467      C1477   1.262       .  A
O1468      V1473   1.890       .  S
O1468      C1478   1.264       .  A
O1469      V1474   1.914       .  S
O1469      C1478   1.267       .  A
O1470      V1474   1.901   1_556  S
O1470      C1477   1.268       .  A
O1471      V1474   1.906       .  S
O1471      C1476   1.264       .  A
O1472      V1474   1.903   1_556  S
O1472      C1475   1.267       .  A
V1473      V1474   2.083       .  T
C1475      C1615   1.493       .  S
C1476      C1587   1.490       .  S
C1477      C1643   1.485       .  S
C1478      C1570   1.490       .  S
O1479      V1487   1.898       .  S
O1479      C1489   1.267       .  A
O1480      V1487   1.902       .  S
O1480      C1490   1.264       .  A
O1481      V1487   1.889       .  S
O1481      C1491   1.263   1_655  A
O1482      V1487   1.892       .  S
O1482      C1492   1.263       .  A
O1483      V1488   1.909       .  S
O1483      C1492   1.268       .  A
O1484      V1488   1.913   1_455  S
O1484      C1491   1.268       .  A
O1485      V1488   1.907   1_455  S
O1485      C1490   1.268   1_455  A
O1486      V1488   1.906   1_565  S
O1486      C1489   1.265   1_565  A
V1487      V1488   2.084       .  T
C1489      C1556   1.490   1_545  S
C1490      C1626   1.489   1_655  S
C1491      C1542   1.490       .  S
C1492      C1598   1.487       .  S
C1493      N1494   1.370       .  A
C1493      N1498   1.367       .  A
C1493      C1584   1.489       .  S
N1494      C1495   1.361       .  A
C1495      N1496   1.351       .  A
C1495      C1531   1.479       .  S
N1496      C1497   1.349       .  A
C1497      N1498   1.358       .  A
C1497      C1524   1.476       .  S
C1499      N1500   1.359       .  A
C1499      N1504   1.354       .  A
C1499      C1545   1.495       .  S
N1500      C1501   1.365       .  A
C1501      N1502   1.362       .  A
N1502      C1503   1.352       .  A
C1503      N1504   1.358       .  A
C1503      C1534   1.479       .  S
C1505      N1742   1.368       .  A
C1505      C1573   1.494       .  S
N1506      C1977   1.369       .  A
N1506      C1507   1.362       .  A
C1507      C1536   1.477       .  S
N1508      C1981   1.349   1_455  A
C1509      N1744   1.350   1_655  A
C1509      N1510   1.354       .  A
C1509      C1519   1.469       .  S
C1511      N1512   1.353       .  A
C1511      N1516   1.361       .  A
C1511      C1559   1.496       .  S
N1512      C1513   1.359       .  A
C1513      N1514   1.353       .  A
C1513      C1765   1.505       .  S
N1514      C1515   1.357       .  A
C1515      N1516   1.365       .  A
C1515      C1522   1.474       .  S
C1517      C1518   1.528   1_655  S
C1517      C1523   1.526       .  S
C1517      C1521   1.534       .  S
C1518      C1519   1.366   1_455  D
C1519      C1520   1.537       .  S
C1520      C1524   1.541       .  S
C1520      C1522   1.548       .  S
C1520      H1526   1.111       .  S
C1521      H1527   1.083       .  S
C1521      C1522   1.365       .  D
C1523      H1528   1.087       .  S
C1523      C1524   1.366       .  D
C1529      C1985   1.506       .  S
C1529      C1530   1.525   1_565  S
C1529      C1535   1.522       .  S
C1529      C1533   1.524   1_565  S
C1530      H1537   1.087       .  S
C1530      C1531   1.371       .  D
C1531      C1532   1.550       .  S
C1532      C1536   1.552   1_545  S
C1532      C1534   1.550       .  S
C1532      H1538   1.111       .  S
C1533      H1539   1.083       .  S
C1533      C1534   1.357       .  D
C1535      H2012   1.087       .  S
C1535      C1536   1.370       .  D
H1540      C1771   1.087       .  S
C1541      C1542   1.407       .  A
C1541      C1546   1.402       .  A
C1541      H1548   1.086   1_455  S
C1543      C1544   1.402       .  A
C1543      N1550   1.429       .  S
C1544      C1545   1.408       .  A
C1544      H1549   1.085       .  S
C1546      N1547   1.427       .  S
N1547      O1551   1.261   1_455  A
N1547      O1552   1.262       .  A
N1550      O1554   1.262       .  A
N1550      O1553   1.262   1_545  A
C1555      C1556   1.403   1_545  A
C1555      C1560   1.398       .  A
C1555      H1562   1.085       .  S
C1556      C2029   1.415       .  A
C1557      C1792   1.416       .  A
C1557      C1558   1.406       .  A
C1557      N1564   1.429       .  S
C1558      C1559   1.406       .  A
C1558      H1563   1.083       .  S
C1559      C1796   1.419       .  A
C1560      C2031   1.418   1_545  A
C1560      N1561   1.429       .  S
N1561      O1565   1.261       .  A
N1561      O1566   1.262       .  A
N1564      O1568   1.262       .  A
N1564      O1567   1.262       .  A
C1569      C1570   1.407       .  A
C1569      C1574   1.399       .  A
C1569      H1576   1.085       .  S
C1570      C1571   1.414       .  A
C1571      C1572   1.402       .  A
C1571      N1578   1.429       .  S
C1572      C1573   1.410       .  A
C1572      H1577   1.085       .  S
C1573      C1574   1.415       .  A
C1574      N1811   1.429       .  S
N1575      C2046   1.429   1_545  S
N1575      O1579   1.262       .  A
N1575      O1580   1.262       .  A
N1578      O1582   1.262       .  A
N1578      O1581   1.262       .  A
C1583      C1584   1.406       .  A
C1583      C1588   1.406       .  A
C1583      H1590   1.079       .  S
C1584      C1585   1.412       .  A
C1585      C1586   1.402       .  A
C1585      N1592   1.429       .  S
C1586      C1587   1.406       .  A
C1586      H1591   1.080       .  S
C1587      C1588   1.415       .  A
C1588      N1589   1.429       .  S
N1589      O1593   1.262       .  A
N1589      O1594   1.262       .  A
N1592      O1596   1.262       .  A
N1592      O1595   1.262       .  A
C1597      C1598   1.407       .  A
C1597      C1602   1.403       .  A
C1597      H1604   1.085       .  S
C1598      C2071   1.408   1_545  A
C1599      C1834   1.410       .  A
C1599      C1600   1.397       .  A
C1599      N1606   1.425       .  S
C1600      C1601   1.404       .  A
C1600      H1605   1.085       .  S
C1601      C1838   1.417       .  A
C1602      C2073   1.417       .  A
C1602      N1603   1.430       .  S
N1603      O1607   1.262       .  A
N1603      O1608   1.262       .  A
N1606      O1610   1.262       .  A
N1606      O1609   1.262       .  A
C1611      C1612   1.408       .  A
C1611      C1616   1.405       .  A
C1611      H1618   1.085       .  S
C1612      C1613   1.413       .  A
C1613      C1614   1.404       .  A
C1614      C1615   1.408       .  A
C1614      H1619   1.085       .  S
C1615      C1616   1.414       .  A
C1616      N1617   1.429       .  S
N1617      O1621   1.262       .  A
N1617      O1622   1.262       .  A
N1620      O1624   1.261   1_455  A
N1620      O1623   1.262       .  A
C1625      C1626   1.404       .  A
C1625      H1632   1.084       .  S
C1627      C1628   1.407       .  A
C1627      N1634   1.429       .  S
C1628      C1629   1.405       .  A
C1628      H1633   1.084       .  S
C1629      C1630   1.417       .  A
C1630      N1631   1.430       .  S
N1631      O1636   1.262       .  A
N1634      O1638   1.262       .  A
C1639      C1640   1.405       .  A
C1639      C1644   1.401       .  A
C1639      H1646   1.085       .  S
C1640      C1641   1.418       .  A
C1641      C1642   1.399       .  A
C1641      N1648   1.428       .  S
C1642      C1643   1.401       .  A
C1642      H1647   1.086       .  S
C1643      C1644   1.417       .  A
C1644      N1645   1.429       .  S
N1645      O1649   1.262       .  A
N1645      O1650   1.262       .  A
N1648      O1652   1.262       .  A
N1648      O1651   1.262       .  A
C1653      N1654   1.363       .  A
C1653      N1658   1.370       .  A
C1653      C1876   1.492       .  S
N1654      C1655   1.357       .  A
C1655      N1656   1.351       .  A
C1655      C1689   1.499       .  S
N1656      C1657   1.349       .  A
C1657      N1658   1.360       .  A
C1657      C1684   1.472       .  S
C1659      N1660   1.369       .  A
C1659      N1664   1.358       .  A
C1659      C1865   1.487       .  S
N1660      C1661   1.368       .  A
C1661      N1662   1.363       .  A
N1662      C1663   1.364       .  A
C1663      N1664   1.353       .  A
C1663      C1691   1.481       .  S
C1665      N1902   1.362       .  A
C1665      C1848   1.492       .  S
N1666      C1667   1.360       .  A
C1667      C1694   1.484       .  S
C1669      N1904   1.359   1_655  A
C1669      N1670   1.362       .  A
C1669      C1679   1.476       .  S
C1671      N1672   1.365       .  A
C1671      N1676   1.365       .  A
C1671      C1837   1.488       .  S
N1672      C1673   1.354       .  A
C1673      N1674   1.359       .  A
C1673      C1677   1.520       .  S
N1674      C1675   1.360       .  A
C1675      N1676   1.360       .  A
C1675      C1932   1.478       .  S
C1677      C1678   1.530       .  S
C1677      C1683   1.528       .  S
C1677      C1681   1.551       .  S
C1678      H1685   1.087       .  S
C1678      C1679   1.364       .  D
C1679      C1680   1.542       .  S
C1680      C1684   1.540       .  S
C1680      C1682   1.555       .  S
C1680      H1686   1.111       .  S
C1681      H1687   1.086       .  S
C1681      C1682   1.379       .  D
C1683      H1688   1.087       .  S
C1683      C1684   1.363       .  D
C1689      C1690   1.529       .  S
C1689      C1695   1.527       .  S
C1689      C1693   1.535       .  S
C1690      H1697   1.087       .  S
C1690      C1691   1.361       .  D
C1691      C1692   1.554       .  S
C1692      C1696   1.547       .  S
C1692      C1694   1.553       .  S
C1692      H1698   1.110       .  S
C1693      H1699   1.082       .  S
C1693      C1694   1.372       .  D
C1695      H1700   1.088       .  S
C1695      C1696   1.357       .  D
O1701      V1709   1.908   1_556  S
O1701      C1711   1.266       .  A
O1702      V1709   1.906       .  S
O1702      C1712   1.268       .  A
O1703      V1709   1.897   1_556  S
O1703      C1713   1.262       .  A
O1704      V1709   1.890       .  S
O1704      C1714   1.264       .  A
O1705      V1710   1.912       .  S
O1705      C1714   1.267       .  A
O1706      V1710   1.900   1_556  S
O1706      C1713   1.268       .  A
O1707      V1710   1.906       .  S
O1707      C1712   1.264       .  A
O1708      V1710   1.902   1_556  S
O1708      C1711   1.267       .  A
V1709      V1710   2.084       .  T
C1711      C1851   1.491       .  S
C1712      C1823   1.489       .  S
C1713      C1879   1.485       .  S
C1714      C1806   1.489       .  S
O1715      V1723   1.900       .  S
O1715      C1725   1.267       .  A
O1716      V1723   1.906       .  S
O1716      C1726   1.264       .  A
O1717      V1723   1.890       .  S
O1717      C1727   1.264   1_655  A
O1718      V1723   1.894       .  S
O1718      C1728   1.264       .  A
O1719      V1724   1.910       .  S
O1719      C1728   1.268       .  A
O1720      V1724   1.913   1_455  S
O1720      C1727   1.268       .  A
O1721      V1724   1.905   1_455  S
O1721      C1726   1.267   1_455  A
O1722      V1724   1.905       .  S
O1722      C1725   1.264       .  A
V1723      V1724   2.084       .  T
C1725      C1792   1.491       .  S
C1726      C1862   1.485       .  S
C1727      C1778   1.491       .  S
C1728      C1834   1.489       .  S
C1729      N1730   1.370       .  A
C1729      N1734   1.367       .  A
C1729      C1820   1.489       .  S
N1730      C1731   1.361       .  A
C1731      N1732   1.350       .  A
C1731      C1767   1.479       .  S
N1732      C1733   1.349       .  A
C1733      N1734   1.358       .  A
C1733      C1760   1.475       .  S
C1735      N1736   1.359       .  A
C1735      N1740   1.354       .  A
C1735      C1781   1.495       .  S
N1736      C1737   1.365       .  A
C1737      N1738   1.362       .  A
N1738      C1739   1.353       .  A
C1739      N1740   1.359       .  A
C1739      C1770   1.479       .  S
C1741      N1978   1.368       .  A
C1741      C1809   1.493       .  S
N1742      C1743   1.359       .  A
C1743      C1772   1.474       .  S
C1745      N1980   1.350   1_655  A
C1745      N1746   1.353       .  A
C1745      C1755   1.467       .  S
C1747      N1748   1.352       .  A
C1747      N1752   1.360       .  A
C1747      C1795   1.493       .  S
N1748      C1749   1.358       .  A
C1749      N1750   1.354       .  A
C1749      C2001   1.506       .  S
N1750      C1751   1.357       .  A
C1751      N1752   1.365       .  A
C1751      C1758   1.474       .  S
C1753      C1754   1.528   1_655  S
C1753      C1759   1.526       .  S
C1753      C1757   1.534       .  S
C1754      C1755   1.365   1_455  D
C1755      C1756   1.537       .  S
C1756      C1760   1.541       .  S
C1756      C1758   1.546       .  S
C1756      H1762   1.111       .  S
C1757      H1763   1.082       .  S
C1757      C1758   1.366       .  D
C1759      H1764   1.087       .  S
C1759      C1760   1.366       .  D
C1765      C1766   1.525       .  S
C1765      C1771   1.521       .  S
C1765      C1769   1.525       .  S
C1766      H1773   1.087       .  S
C1766      C1767   1.372       .  D
C1767      C1768   1.550       .  S
C1768      C1772   1.551       .  S
C1768      C1770   1.550       .  S
C1768      H1774   1.111       .  S
C1769      H1775   1.082       .  S
C1769      C1770   1.357       .  D
C1771      C1772   1.369       .  D
H1776      C2007   1.087       .  S
C1777      C1778   1.406       .  A
C1777      C1782   1.402       .  A
C1777      H1784   1.086   1_455  S
C1779      C1780   1.402       .  A
C1779      N1786   1.429       .  S
C1780      C1781   1.408       .  A
C1780      H1785   1.085       .  S
C1782      N1783   1.427       .  S
N1783      O1787   1.261   1_455  A
N1783      O1788   1.262       .  A
N1786      O1790   1.262       .  A
N1786      O1789   1.262       .  A
C1791      C1792   1.403       .  A
C1791      C1796   1.398       .  A
C1791      H1798   1.085       .  S
C1793      C2028   1.415       .  A
C1793      C1794   1.406       .  A
C1793      N1800   1.429       .  S
C1794      C1795   1.406       .  A
C1794      H1799   1.084       .  S
C1795      C2032   1.418       .  A
C1796      N1797   1.429       .  S
N1797      O1801   1.261       .  A
N1797      O1802   1.262       .  A
N1800      O1804   1.262       .  A
N1800      O1803   1.262       .  A
C1805      C1806   1.407       .  A
C1805      C1810   1.400       .  A
C1805      H1812   1.085       .  S
C1806      C1807   1.413       .  A
C1807      C1808   1.401       .  A
C1807      N1814   1.429       .  S
C1808      C1809   1.409       .  A
C1808      H1813   1.084       .  S
C1809      C1810   1.414       .  A
C1810      N2047   1.429       .  S
N1811      O1815   1.262       .  A
N1811      O1816   1.262       .  A
N1814      O1818   1.262       .  A
N1814      O1817   1.262       .  A
C1819      C1820   1.407       .  A
C1819      C1824   1.406       .  A
C1819      H1826   1.078       .  S
C1820      C1821   1.412       .  A
C1821      C1822   1.401       .  A
C1821      N1828   1.429       .  S
C1822      C1823   1.405       .  A
C1822      H1827   1.080       .  S
C1823      C1824   1.414       .  A
C1824      N1825   1.429       .  S
N1825      O1829   1.262       .  A
N1825      O1830   1.262       .  A
N1828      O1832   1.262       .  A
N1828      O1831   1.262       .  A
C1833      C1834   1.408       .  A
C1833      C1838   1.404       .  A
C1833      H1840   1.085       .  S
C1835      C2070   1.410       .  A
C1835      C1836   1.398       .  A
C1835      N1842   1.426       .  S
C1836      C1837   1.405       .  A
C1836      H1841   1.085       .  S
C1837      C2074   1.416       .  A
C1838      N1839   1.430       .  S
N1839      O1843   1.262       .  A
N1839      O1844   1.262       .  A
N1842      O1846   1.262       .  A
N1842      O1845   1.261       .  A
C1847      C1848   1.407       .  A
C1847      C1852   1.403       .  A
C1847      H1854   1.085       .  S
C1848      C1849   1.413       .  A
C1849      C1850   1.403       .  A
C1850      C1851   1.408       .  A
C1850      H1855   1.085       .  S
C1851      C1852   1.414       .  A
C1852      N1853   1.429       .  S
N1853      O1857   1.262       .  A
N1853      O1858   1.262       .  A
N1856      O1860   1.261   1_455  A
N1856      O1859   1.262       .  A
C1861      C1862   1.403       .  A
C1861      H1868   1.085       .  S
C1863      C1864   1.409       .  A
C1863      N1870   1.428       .  S
C1864      C1865   1.407       .  A
C1864      H1869   1.084       .  S
C1865      C1866   1.414       .  A
C1866      N1867   1.429       .  S
N1867      O1872   1.262       .  A
N1870      O1874   1.262       .  A
C1875      C1876   1.405       .  A
C1875      C1880   1.400       .  A
C1875      H1882   1.085       .  S
C1876      C1877   1.418       .  A
C1877      C1878   1.399       .  A
C1877      N1884   1.428       .  S
C1878      C1879   1.401       .  A
C1878      H1883   1.086       .  S
C1879      C1880   1.416       .  A
C1880      N1881   1.429       .  S
N1881      O1885   1.262       .  A
N1881      O1886   1.262       .  A
N1884      O1888   1.262       .  A
N1884      O1887   1.262       .  A
C1889      N1890   1.364       .  A
C1889      N1894   1.369       .  A
C1889      C2112   1.492       .  S
N1890      C1891   1.357       .  A
C1891      N1892   1.351       .  A
C1891      C1925   1.500       .  S
N1892      C1893   1.348       .  A
C1893      N1894   1.360       .  A
C1893      C1920   1.471       .  S
C1895      N1896   1.371       .  A
C1895      N1900   1.358       .  A
C1895      C2101   1.494       .  S
N1896      C1897   1.368       .  A
C1897      N1898   1.364       .  A
N1898      C1899   1.364       .  A
C1899      N1900   1.353       .  A
C1899      C1927   1.481       .  S
C1901      C2084   1.492       .  S
N1902      C1903   1.359       .  A
C1903      C1930   1.483       .  S
C1905      N1906   1.362       .  A
C1905      C1915   1.478       .  S
C1907      N1908   1.366   1_545  A
C1907      N1912   1.365       .  A
C1907      C2073   1.489       .  S
N1908      C1909   1.354       .  A
C1909      N1910   1.360   1_565  A
C1909      C1913   1.522       .  S
N1910      C1911   1.361       .  A
C1911      N1912   1.360       .  A
C1913      C1914   1.530       .  S
C1913      C1919   1.528       .  S
C1913      C1917   1.553       .  S
C1914      H1921   1.087   1_565  S
C1914      C1915   1.364       .  D
C1915      C1916   1.542       .  S
C1916      C1920   1.539       .  S
C1916      C1918   1.555       .  S
C1916      H1922   1.111       .  S
C1917      H1923   1.086       .  S
C1917      C1918   1.381       .  D
C1919      H1924   1.087       .  S
C1919      C1920   1.362       .  D
C1925      C1926   1.530       .  S
C1925      C1931   1.528       .  S
C1925      C1929   1.535       .  S
C1926      H1933   1.087       .  S
C1926      C1927   1.361       .  D
C1927      C1928   1.553       .  S
C1928      C1932   1.547       .  S
C1928      C1930   1.551       .  S
C1928      H1934   1.111       .  S
C1929      H1935   1.082       .  S
C1929      C1930   1.373       .  D
C1931      H1936   1.088       .  S
C1931      C1932   1.357       .  D
O1937      V1945   1.910   1_556  S
O1937      C1947   1.266       .  A
O1938      V1945   1.909       .  S
O1938      C1948   1.269       .  A
O1939      V1945   1.899   1_556  S
O1939      C1949   1.262       .  A
O1940      V1945   1.891       .  S
O1940      C1950   1.264       .  A
O1941      V1946   1.913       .  S
O1941      C1950   1.267       .  A
O1942      V1946   1.901   1_556  S
O1942      C1949   1.268       .  A
O1943      V1946   1.906       .  S
O1943      C1948   1.264       .  A
O1944      V1946   1.903   1_556  S
O1944      C1947   1.267       .  A
V1945      V1946   2.083       .  T
C1947      C2087   1.492       .  S
C1948      C2059   1.492       .  S
C1949      C2115   1.486       .  S
C1950      C2042   1.490       .  S
O1951      V1959   1.893       .  S
O1951      C1961   1.266       .  A
O1952      V1959   1.899       .  S
O1952      C1962   1.263       .  A
O1953      V1959   1.890       .  S
O1953      C1963   1.263       .  A
O1954      V1959   1.890       .  S
O1954      C1964   1.263       .  A
O1955      V1960   1.913       .  S
O1955      C1964   1.268       .  A
O1956      V1960   1.917   1_455  S
O1956      C1963   1.269   1_455  A
O1957      V1960   1.909       .  S
O1957      C1962   1.268       .  A
O1958      V1960   1.906       .  S
O1958      C1961   1.265       .  A
V1959      V1960   2.083       .  T
C1961      C2028   1.488       .  S
C1962      C2098   1.491       .  S
C1963      C2014   1.492   1_655  S
C1964      C2070   1.487       .  S
C1965      N1966   1.371       .  A
C1965      N1970   1.368       .  A
C1965      C2056   1.492       .  S
N1966      C1967   1.361       .  A
C1967      N1968   1.350       .  A
C1967      C2003   1.480       .  S
N1968      C1969   1.349       .  A
C1969      N1970   1.359       .  A
C1969      C1996   1.477       .  S
C1971      N1972   1.360       .  A
C1971      N1976   1.355       .  A
C1971      C2017   1.497       .  S
N1972      C1973   1.366       .  A
C1973      N1974   1.362       .  A
N1974      C1975   1.353       .  A
C1975      N1976   1.359       .  A
C1975      C2006   1.481       .  S
C1977      C2045   1.494       .  S
N1978      C1979   1.360       .  A
C1979      C2008   1.474       .  S
C1981      N1982   1.353       .  A
C1981      C1991   1.468       .  S
C1983      N1984   1.353       .  A
C1983      N1988   1.361       .  A
C1983      C2031   1.495       .  S
N1984      C1985   1.359       .  A
C1985      N1986   1.353       .  A
N1986      C1987   1.357       .  A
C1987      N1988   1.365       .  A
C1987      C1994   1.473       .  S
C1989      C1990   1.529   1_655  S
C1989      C1995   1.527       .  S
C1989      C1993   1.534       .  S
C1990      C1991   1.365   1_455  D
C1991      C1992   1.536       .  S
C1992      C1996   1.540       .  S
C1992      C1994   1.547       .  S
C1992      H1998   1.111       .  S
C1993      H1999   1.083       .  S
C1993      C1994   1.366       .  D
C1995      H2000   1.087       .  S
C1995      C1996   1.366       .  D
C2001      C2002   1.525       .  S
C2001      C2007   1.520       .  S
C2001      C2005   1.526       .  S
C2002      H2009   1.087       .  S
C2002      C2003   1.372       .  D
C2003      C2004   1.550       .  S
C2004      C2008   1.552       .  S
C2004      C2006   1.550       .  S
C2004      H2010   1.111       .  S
C2005      H2011   1.082       .  S
C2005      C2006   1.357       .  D
C2007      C2008   1.368       .  D
C2013      C2014   1.407       .  A
C2013      C2018   1.403       .  A
C2013      H2020   1.086   1_455  S
C2015      C2016   1.403       .  A
C2015      N2022   1.428       .  S
C2016      C2017   1.408       .  A
C2016      H2021   1.085       .  S
C2018      N2019   1.427       .  S
N2019      O2023   1.261   1_455  A
N2019      O2024   1.262       .  A
N2022      O2026   1.262       .  A
N2022      O2025   1.262       .  A
C2027      C2028   1.403       .  A
C2027      C2032   1.396       .  A
C2027      H2034   1.085       .  S
C2029      C2030   1.406       .  A
C2029      N2036   1.428       .  S
C2030      C2031   1.406       .  A
C2030      H2035   1.084       .  S
C2032      N2033   1.429       .  S
N2033      O2037   1.261       .  A
N2033      O2038   1.262       .  A
N2036      O2040   1.262       .  A
N2036      O2039   1.262       .  A
C2041      C2042   1.407       .  A
C2041      C2046   1.401       .  A
C2041      H2048   1.085   1_565  S
C2042      C2043   1.414       .  A
C2043      C2044   1.401       .  A
C2043      N2050   1.429       .  S
C2044      C2045   1.410       .  A
C2044      H2049   1.084       .  S
C2045      C2046   1.413       .  A
N2047      O2051   1.262       .  A
N2047      O2052   1.262       .  A
N2050      O2054   1.262       .  A
N2050      O2053   1.262       .  A
C2055      C2056   1.407       .  A
C2055      C2060   1.406       .  A
C2055      H2062   1.078       .  S
C2056      C2057   1.413       .  A
C2057      C2058   1.403       .  A
C2057      N2064   1.429       .  S
C2058      C2059   1.406       .  A
C2058      H2063   1.080       .  S
C2059      C2060   1.415       .  A
C2060      N2061   1.429       .  S
N2061      O2065   1.262       .  A
N2061      O2066   1.262       .  A
N2064      O2068   1.262       .  A
N2064      O2067   1.262       .  A
C2069      C2070   1.408       .  A
C2069      C2074   1.401       .  A
C2069      H2076   1.085       .  S
C2071      C2072   1.396       .  A
C2071      N2078   1.424       .  S
C2072      C2073   1.404   1_565  A
C2072      H2077   1.085       .  S
C2074      N2075   1.430       .  S
N2075      O2079   1.262       .  A
N2075      O2080   1.262       .  A
N2078      O2082   1.261       .  A
N2078      O2081   1.262       .  A
C2083      C2084   1.407       .  A
C2083      C2088   1.403       .  A
C2083      H2090   1.085   1_565  S
C2084      C2085   1.413       .  A
C2085      C2086   1.404       .  A
C2086      C2087   1.408       .  A
C2086      H2091   1.085       .  S
C2087      C2088   1.414       .  A
C2088      N2089   1.429   1_565  S
N2089      O2093   1.262       .  A
N2089      O2094   1.262       .  A
N2092      O2096   1.262   1_455  A
N2092      O2095   1.262       .  A
C2097      C2098   1.404   1_455  A
C2097      H2104   1.084       .  S
C2099      C2100   1.406       .  A
C2099      N2106   1.428       .  S
C2100      C2101   1.405       .  A
C2100      H2105   1.084       .  S
C2101      C2102   1.419       .  A
C2102      N2103   1.430       .  S
N2103      O2108   1.261       .  A
N2106      O2110   1.262       .  A
C2111      C2112   1.405       .  A
C2111      C2116   1.401       .  A
C2111      H2118   1.086       .  S
C2112      C2113   1.417       .  A
C2113      C2114   1.399       .  A
C2113      N2120   1.428       .  S
C2114      C2115   1.401       .  A
C2114      H2119   1.086       .  S
C2115      C2116   1.417       .  A
C2116      N2117   1.429       .  S
N2117      O2121   1.262       .  A
N2117      O2122   1.262       .  A
N2120      O2124   1.261       .  A
N2120      O2123   1.262       .  A
