geometry optimzed in LAMMPS
_audit_creation_date              2020-11-30 
_audit_creation_method            'lammps2cif' 
_symmetry_space_group_name_H-M    'P1' 
_symmetry_Int_Tables_number       1 
_symmetry_cell_setting            triclinic 
loop_ 
_symmetry_equiv_pos_as_xyz 
  x,y,z 
_cell_length_a                    25.715813766200665 
_cell_length_b                    27.09785633232541 
_cell_length_c                    26.353448716738637 
_cell_angle_alpha                 90.08350548145248 
_cell_angle_beta                  90.56358012186797 
_cell_angle_gamma                 90.40516820775215 
loop_ 
_atom_site_label 
_atom_site_type_symbol 
_atom_site_fract_x 
_atom_site_fract_y 
_atom_site_fract_z 
_atom_site_charge 
C1          C  0.29614324  0.07304381  0.67230356     0.03260
C2          C  0.33129299  0.11267026  0.66790837    -0.12890
C3          C  0.36397717  0.11675082  0.62576222     0.00760
C4          C  0.35966883  0.08173339  0.58660621    -0.11420
C5          C  0.32504085  0.04151481  0.59061295     0.03250
C6          C  0.29315100  0.03762449  0.63333841    -0.10840
H7          H  0.33230887  0.14120137  0.69671760     0.08840
H8          H  0.38427823  0.08489682  0.55360127     0.06370
H9          H  0.26637304  0.00673700  0.63650963     0.06220
O10         O  0.42031298  0.27257861  0.58143181    -0.71650
O11         O  0.52506786  0.17481483  0.58076409    -0.71870
O12         O  0.42077212  0.17273238  0.58231657    -0.71730
O13         O  0.52411219  0.27401905  0.58024431    -0.71740
O14         O  0.52675216  0.27379379  0.66266561    -0.71700
O15         O  0.42214221  0.17449610  0.66472210    -0.71720
O16         O  0.52703808  0.17515467  0.66316692    -0.71660
O17         O  0.42220985  0.27338480  0.66387791    -0.71840
V18         V  0.47255465  0.22349439  0.58279483     1.35240
V19         V  0.47446967  0.22414904  0.66199772     1.35170
C20         C  0.40385953  0.29009904  0.62268928     0.77590
C21         C  0.54410508  0.15842045  0.62173875     0.77640
C22         C  0.40374368  0.15643755  0.62402414     0.77510
C23         C  0.54295965  0.29114118  0.62119854     0.77480
C24         C  0.64916767  0.06999134  0.66442898     0.03260
C25         C  0.61422029  0.10950031  0.66430250    -0.12890
C26         C  0.58386518  0.11937385  0.62109053     0.00760
C27         C  0.59064405  0.09068940  0.57731539    -0.11420
C28         C  0.62048502  0.04745456  0.57879981     0.03250
C29         C  0.64925073  0.03724144  0.62321258    -0.10840
H30         H  0.61194064  0.13344036  0.69717655     0.08840
H31         H  0.57175260  0.10176039  0.54250151     0.06370
H32         H  0.67243661  0.00412024  0.62570120     0.06220
C33         C  0.32382477  0.40019268  0.58140246     0.03260
C34         C  0.36178179  0.36310743  0.58237858    -0.12890
C35         C  0.36444278  0.32934426  0.62261965     0.00760
C36         C  0.32942470  0.33331536  0.66276875    -0.11420
C37         C  0.29160776  0.37043366  0.66296546     0.03250
C38         C  0.28969685  0.40427651  0.62260895    -0.10840
H39         H  0.38975919  0.36091968  0.55198384     0.08840
H40         H  0.33105215  0.30697828  0.69365973     0.06370
H41         H  0.26198055  0.43410596  0.62345307     0.06220
C42         C  0.64805957  0.38006304  0.66534748     0.03260
C43         C  0.61479837  0.33886846  0.66296048    -0.12890
C44         C  0.58176949  0.33143285  0.62098058     0.00760
C45         C  0.58463935  0.36385465  0.57971018    -0.11420
C46         C  0.61805726  0.40509702  0.58127227     0.03250
C47         C  0.64850281  0.41370790  0.62495790    -0.10840
H48         H  0.61525825  0.31204725  0.69339310     0.08840
H49         H  0.55999245  0.35764374  0.54668793     0.06370
H50         H  0.67235661  0.44666035  0.62792878     0.06220
C51         C  0.29442708  0.87444189  0.33892626     0.03260
C52         C  0.29238429  0.90710487  0.38049814    -0.12890
C53         C  0.32208000  0.89852003  0.42502702     0.00760
C54         C  0.35640250  0.85808380  0.42544576    -0.11420
C55         C  0.36297367  0.82852646  0.38222238     0.03250
C56         C  0.33110750  0.83632875  0.33958209    -0.10840
H57         H  0.26781931  0.93922630  0.37782736     0.08840
H58         H  0.37927849  0.85011625  0.45908628     0.06370
H59         H  0.33414279  0.81203768  0.30704427     0.06220
O60         O  0.52816127  0.67549459  0.41879304    -0.71650
O61         O  0.42279291  0.77302023  0.42191140    -0.71870
O62         O  0.42442599  0.67348075  0.42029260    -0.71730
O63         O  0.52729180  0.77482569  0.42051119    -0.71740
O64         O  0.52627012  0.77494364  0.33807006    -0.71700
O65         O  0.42147575  0.67554924  0.33790275    -0.71720
O66         O  0.42111524  0.77439035  0.33952714    -0.71660
O67         O  0.52602193  0.67640710  0.33636091    -0.71840
V68         V  0.47561318  0.72432890  0.41876931     1.35240
V69         V  0.47371627  0.72540576  0.33957320     1.35170
C70         C  0.54460191  0.65894543  0.37707020     0.77590
C71         C  0.40377157  0.79022500  0.38122414     0.77640
C72         C  0.40567350  0.65704275  0.37904089     0.77510
C73         C  0.54503113  0.79146614  0.37930352     0.77480
C74         C  0.65941889  0.86929778  0.33681957     0.03260
C75         C  0.66197505  0.90464550  0.37568340    -0.12890
C76         C  0.62907819  0.90113621  0.41767430     0.00760
C77         C  0.59197532  0.86277837  0.41943768    -0.11420
C78         C  0.58670675  0.82918186  0.37916599     0.03250
C79         C  0.62094478  0.83234661  0.33820283    -0.10840
H80         H  0.68826586  0.93578104  0.37217789     0.08840
H81         H  0.56574966  0.86039140  0.45130547     0.06370
H82         H  0.61797463  0.80582495  0.30745393     0.06220
C83         C  0.32754084  0.54445934  0.41832701     0.03260
C84         C  0.36487709  0.58256652  0.41843769    -0.12890
C85         C  0.36646293  0.61707277  0.37880532     0.00760
C86         C  0.33077445  0.61293066  0.33849682    -0.11420
C87         C  0.29370871  0.57469101  0.33728000     0.03250
C88         C  0.29302966  0.53999500  0.37683297    -0.10840
H89         H  0.39373592  0.58450749  0.44858477     0.08840
H90         H  0.33145092  0.63985280  0.30811399     0.06370
H91         H  0.26592618  0.50928210  0.37527234     0.06220
C92         C  0.64952371  0.57214272  0.33199389     0.03260
C93         C  0.64737394  0.53595481  0.36997110    -0.12890
C94         C  0.61514054  0.54197594  0.41226977     0.00760
C95         C  0.58487761  0.58472690  0.41593217    -0.11420
C96         C  0.58283564  0.61870094  0.37594233     0.03250
C97         C  0.61559083  0.61247002  0.33418287    -0.10840
H98         H  0.67084094  0.50310487  0.36655194     0.08840
H99         H  0.56105300  0.59040213  0.44909158     0.06370
H100        H  0.61555363  0.63953477  0.30393635     0.06220
O101        O  0.02389027  0.67196604  0.08115018    -0.71650
O102        O  0.92191693  0.77252273  0.07965856    -0.71870
O103        O  0.02594870  0.77182679  0.08022238    -0.71730
O104        O  0.92010169  0.67330364  0.08096010    -0.71740
O105        O  0.92028480  0.67456823  0.16339309    -0.71700
O106        O  0.02685956  0.77228937  0.16266388    -0.71720
O107        O  0.92207914  0.77308176  0.16210809    -0.71660
O108        O  0.02487300  0.67328272  0.16359240    -0.71840
V109        V  0.97304788  0.72244689  0.08210865     1.35240
V110        V  0.97357066  0.72332976  0.16133300     1.35170
C111        C  0.04137378  0.65513292  0.12259192     0.77590
C112        C  0.90432200  0.78962256  0.12062115     0.77640
C113        C  0.04420771  0.78910821  0.12136987     0.77510
C114        C  0.90226087  0.65708378  0.12231161     0.77480
C115        C  0.15643814  0.87197151  0.16301791     0.03260
C116        C  0.15660636  0.90666357  0.12340187    -0.12890
C117        C  0.12232611  0.90155025  0.08181764     0.00760
C118        C  0.08587329  0.86271782  0.08136820    -0.11420
C119        C  0.08414327  0.82858115  0.12128174     0.03250
C120        C  0.11962334  0.83332788  0.16182466    -0.10840
H121        H  0.18285459  0.93803245  0.12509428     0.08840
H122        H  0.05747989  0.86019839  0.05081262     0.06370
H123        H  0.11878705  0.80673616  0.19250138     0.06220
C124        C  0.11771471  0.54191295  0.08428791     0.03260
C125        C  0.15384543  0.53941230  0.12456503    -0.12890
C126        C  0.15292560  0.57396588  0.16431786     0.00760
C127        C  0.11539668  0.61127152  0.16361875    -0.11420
C128        C  0.07995563  0.61513269  0.12316093     0.03250
C129        C  0.08134501  0.58044845  0.08357711    -0.10840
H130        H  0.18277965  0.51072935  0.12495067     0.08840
H131        H  0.11461975  0.63806322  0.19419354     0.06370
H132        H  0.05341044  0.58283582  0.05262320     0.06220
C133        C  0.79550048  0.87230476  0.16339107     0.03260
C134        C  0.83129369  0.83358997  0.16157191    -0.12890
C135        C  0.86447992  0.82837855  0.12024218     0.00760
C136        C  0.86020882  0.86101121  0.07926551    -0.11420
C137        C  0.82604495  0.90133030  0.08103040     0.03250
C138        C  0.79495857  0.90749760  0.12426644    -0.10840
H139        H  0.83294701  0.80708207  0.19231204     0.08840
H140        H  0.88478704  0.85586804  0.04654837     0.06370
H141        H  0.77124115  0.93999111  0.12820924     0.06220
C142        C  0.79454426  0.57111035  0.16539959     0.03260
C143        C  0.83002807  0.61072966  0.16429690    -0.12890
C144        C  0.86288619  0.61730482  0.12264355     0.00760
C145        C  0.85947402  0.58435216  0.08176133    -0.11420
C146        C  0.82809424  0.54193933  0.08448185     0.03250
C147        C  0.79540164  0.53566079  0.12647917    -0.10840
H148        H  0.83102385  0.63714783  0.19522369     0.08840
H149        H  0.88216444  0.59124675  0.04812512     0.06370
H150        H  0.77062316  0.50327350  0.12887789     0.06220
O151        O  0.02086174  0.17495780  0.91767094    -0.71650
O152        O  0.91797658  0.27462387  0.91652621    -0.71870
O153        O  0.91731109  0.17523657  0.91707616    -0.71730
O154        O  0.02178909  0.27482945  0.91699048    -0.71740
O155        O  0.02194590  0.27367310  0.83454800    -0.71700
O156        O  0.91644629  0.17510395  0.83461584    -0.71720
O157        O  0.91734096  0.27393311  0.83408798    -0.71660
O158        O  0.02090034  0.17463753  0.83521049    -0.71680
V159        V  0.96950791  0.22493360  0.91544416     1.35240
V160        V  0.96916403  0.22437059  0.83620963     1.35170
C161        C  0.03797093  0.15740305  0.87667623     0.77590
C162        C  0.90028386  0.29142619  0.87516336     0.77640
C163        C  0.89949095  0.15787798  0.87585790     0.77510
C164        C  0.03943550  0.29145450  0.87573468     0.77480
C165        C  0.11836323  0.40428136  0.91462171     0.03260
C166        C  0.08126990  0.36589810  0.91486196    -0.12890
C167        C  0.07916016  0.33096433  0.87557834     0.00760
C168        C  0.11464731  0.33435660  0.83573238    -0.11420
C169        C  0.15285699  0.37161288  0.83528618     0.03250
C170        C  0.15446833  0.40644190  0.87489531    -0.10840
H171        H  0.05319107  0.36386156  0.94520941     0.08840
H172        H  0.11320569  0.30734387  0.80535441     0.06370
H173        H  0.18378902  0.43511005  0.87475839     0.06220
C174        C  0.15028197  0.07655882  0.83836143     0.03260
C175        C  0.15274758  0.04392752  0.87971364    -0.12890
C176        C  0.11656210  0.04682847  0.91945324     0.00760
C177        C  0.07751051  0.08284445  0.91661505    -0.11420
C178        C  0.07691068  0.11773519  0.87731035     0.03250
C179        C  0.11344779  0.11444043  0.83846900    -0.10840
H180        H  0.18260714  0.01592714  0.88056603     0.08840
H181        H  0.04657820  0.08310764  0.94406176     0.06370
H182        H  0.11364328  0.14180703  0.80853534     0.06220
C183        C  0.83004937  0.04070359  0.91372526     0.03260
C184        C  0.79726472  0.03315569  0.87139695    -0.12890
C185        C  0.79452681  0.06845615  0.83263800     0.00760
C186        C  0.82830133  0.10931831  0.83409130    -0.11420
C187        C  0.86158729  0.11697401  0.87578245     0.03250
C188        C  0.86025252  0.08392320  0.91658146    -0.10840
H189        H  0.77367874  0.99995740  0.86877017     0.08840
H190        H  0.82776248  0.13577155  0.80327088     0.06370
H191        H  0.88334459  0.09155342  0.95025143     0.06220
C192        C  0.79745574  0.38075147  0.82986616     0.03260
C193        C  0.79660900  0.41395891  0.87073852    -0.12890
C194        C  0.82548493  0.40465760  0.91517436     0.00760
C195        C  0.85808624  0.36325665  0.91678495    -0.11420
C196        C  0.86198016  0.33165518  0.87483547     0.03250
C197        C  0.83028309  0.33968652  0.83215342    -0.10840
H198        H  0.77362343  0.44708384  0.86747250     0.08840
H199        H  0.88145022  0.35629478  0.95042741     0.06370
H200        H  0.83030041  0.31330971  0.80123343     0.06220
C201        C  0.78031318  0.48941380  0.02184626    -0.20180
C202        C  0.82815841  0.50526317  0.04248103    -0.06740
C203        C  0.87476915  0.48534910  0.02310427     0.14120
C204        C  0.87228904  0.45407757  0.98075715    -0.20230
C205        C  0.82454178  0.43932439  0.95902789    -0.06750
C206        C  0.77777057  0.45570908  0.98134662     0.14110
C207        C  0.72517869  0.43589310  0.96511064    -0.23580
H208        H  0.74456261  0.50345246  0.03763202     0.15400
H209        H  0.90816194  0.44056392  0.96475613     0.15430
C210        C  0.92701430  0.49391566  0.04851982    -0.23530
H211        H  0.69415317  0.44783911  0.99136618     0.05640
H212        H  0.72560896  0.39491898  0.96512827     0.08870
H213        H  0.71423429  0.44952148  0.92696003     0.08870
H214        H  0.92438424  0.48531974  0.08960056     0.08850
H215        H  0.94059780  0.53239620  0.04345764     0.08850
H216        H  0.95743802  0.46982607  0.03226949     0.05630
C217        C  0.87373490  0.95295194  0.01845553    -0.20180
C218        C  0.82570622  0.93783147  0.03861374    -0.06740
C219        C  0.77928407  0.95539351  0.01565099     0.14120
C220        C  0.78234740  0.98932067  0.97568760    -0.20230
C221        C  0.83028658  0.00474006  0.95615188    -0.06750
C222        C  0.87667904  0.98480885  0.97666671     0.14110
C223        C  0.92912862  0.99405553  0.95300858    -0.23580
H224        H  0.90948285  0.93921551  0.03514346     0.15400
H225        H  0.74677334  0.00398851  0.95944825     0.15430
C226        C  0.72614498  0.93780351  0.03118801    -0.23530
H227        H  0.95967499  0.97039937  0.97020757     0.05640
H228        H  0.94193954  0.03275366  0.95861944     0.08870
H229        H  0.92720343  0.98546868  0.91181791     0.08870
H230        H  0.71428836  0.95766225  0.06584993     0.08850
H231        H  0.72590126  0.89726232  0.03725097     0.08850
H232        H  0.69642129  0.94585424  0.00152044     0.05630
C233        C  0.11864090  0.42239456  0.00715712    -0.20180
C234        C  0.11992707  0.44057663  0.95724335    -0.06740
C235        C  0.11894949  0.49232001  0.94950555     0.14120
C236        C  0.11968200  0.52403732  0.99173837    -0.20230
C237        C  0.11898006  0.50580694  0.04161451    -0.06750
C238        C  0.11682976  0.45410749  0.04928581     0.14110
C239        C  0.10910075  0.43185566  0.10115716    -0.23580
H240        H  0.11809239  0.38283804  0.01321808     0.15400
H241        H  0.12005466  0.56360746  0.98576177     0.15430
C242        C  0.11369194  0.51468027  0.89731674    -0.23530
H243        H  0.10203479  0.39141496  0.09891048     0.05640
H244        H  0.07478858  0.44871060  0.11944813     0.08870
H245        H  0.14401059  0.43743091  0.12540659     0.08870
H246        H  0.08013194  0.49768225  0.87683964     0.08850
H247        H  0.14964989  0.50948155  0.87530065     0.08850
H248        H  0.10683509  0.55506721  0.89928015     0.05630
C249        C  0.11587950  0.98834234  0.05192370    -0.20180
C250        C  0.12262114  0.93834717  0.04004141    -0.06740
C251        C  0.13004240  0.92453053  0.98890150     0.14120
C252        C  0.12656335  0.96049324  0.95073266    -0.20230
C253        C  0.11834264  0.01056975  0.96221412    -0.06750
C254        C  0.11458030  0.02476923  0.01399936     0.14110
C255        C  0.11217733  0.07810555  0.03039430    -0.23580
H256        H  0.11156255  0.99895825  0.09133129     0.15400
H257        H  0.13056374  0.94930824  0.91148241     0.15430
C258        C  0.14432420  0.87248046  0.97450307    -0.23530
H259        H  0.11837520  0.08206496  0.07197948     0.05640
H260        H  0.07353155  0.09391735  0.02184922     0.08870
H261        H  0.14305040  0.09987369  0.01134191     0.08870
H262        H  0.11200558  0.84657238  0.98269905     0.08850
H263        H  0.17960743  0.86114243  0.99602439     0.08850
H264        H  0.15293837  0.86927879  0.93341756     0.05630
C265        C  0.66833566  0.56882323  0.23977158    -0.20180
C266        C  0.68719457  0.56820393  0.28989883    -0.06740
C267        C  0.74156879  0.56753182  0.29888566     0.14120
C268        C  0.77549508  0.56672147  0.25748475    -0.20230
C269        C  0.75664537  0.56738658  0.20735707    -0.06750
C270        C  0.70230310  0.56884708  0.19837540     0.14110
C271        C  0.67989788  0.57320258  0.14548059    -0.23580
H272        H  0.62671061  0.57023090  0.23306517     0.15400
H273        H  0.81715570  0.56658855  0.26419927     0.15430
C274        C  0.76423990  0.57046993  0.35182482    -0.23530
H275        H  0.63698350  0.57748952  0.14591076     0.05640
H276        H  0.68840433  0.53960592  0.12311548     0.08870
H277        H  0.69672261  0.60601636  0.12631349     0.08870
H278        H  0.75415390  0.53687099  0.37362752     0.08850
H279        H  0.74909496  0.60352378  0.37160146     0.08850
H280        H  0.80733211  0.57342225  0.35139434     0.05630
C281        C  0.27709493  0.57212719  0.24436777    -0.20180
C282        C  0.25681041  0.57106423  0.29367686    -0.06740
C283        C  0.20222543  0.57084001  0.30006121     0.14120
C284        C  0.16966466  0.56982691  0.25702534    -0.20230
C285        C  0.18996369  0.57094967  0.20775086    -0.06750
C286        C  0.24448888  0.57308154  0.20136981     0.14110
C287        C  0.26862731  0.57962995  0.14984753    -0.23580
H288        H  0.31890174  0.57345104  0.23955195     0.15400
H289        H  0.12783706  0.56934900  0.26181177     0.15430
C290        C  0.17783716  0.57493093  0.35172262    -0.23530
H291        H  0.31134868  0.58545781  0.15274307     0.05640
H292        H  0.25173155  0.61238266  0.13071270     0.08870
H293        H  0.26203749  0.54642437  0.12606220     0.08870
H294        H  0.19380592  0.60771290  0.37202714     0.08850
H295        H  0.18525363  0.54127656  0.37435193     0.08850
H296        H  0.13498394  0.57922522  0.34892603     0.05630
C297        C  0.78130813  0.87268373  0.25630748    -0.20180
C298        C  0.75984711  0.87560302  0.20722046    -0.06740
C299        C  0.70507320  0.87569934  0.20112135     0.14120
C300        C  0.67352298  0.87499429  0.24419552    -0.20230
C301        C  0.69507494  0.87227045  0.29314748    -0.06750
C302        C  0.74967935  0.86981315  0.29921528     0.14110
C303        C  0.77479597  0.86118231  0.35028140    -0.23580
H304        H  0.82320527  0.87119172  0.26095366     0.15400
H305        H  0.63158181  0.87575061  0.23967324     0.15430
C306        C  0.67933978  0.87395345  0.14960756    -0.23530
H307        H  0.81740930  0.85569562  0.34719328     0.05640
H308        H  0.75784926  0.82768192  0.36806439     0.08870
H309        H  0.76884295  0.89343348  0.37512254     0.08870
H310        H  0.69501072  0.84287943  0.12704738     0.08850
H311        H  0.68601958  0.90920691  0.12976552     0.08850
H312        H  0.63658361  0.86869636  0.15231029     0.05630
C313        C  0.27944930  0.88016511  0.24543526    -0.20180
C314        C  0.25839056  0.87904118  0.29445612    -0.06740
C315        C  0.20366769  0.87624035  0.29961747     0.14120
C316        C  0.17179833  0.87586976  0.25608046    -0.20230
C317        C  0.19280003  0.87669981  0.20714847    -0.06750
C318        C  0.24754206  0.87832686  0.20177490     0.14110
C319        C  0.27283792  0.87483444  0.15051638    -0.23580
H320        H  0.32134753  0.88105956  0.24134331     0.15400
H321        H  0.12992535  0.87397642  0.26022665     0.15430
C322        C  0.17833980  0.87125001  0.35060827    -0.23530
H323        H  0.31577432  0.87180571  0.15395769     0.05640
H324        H  0.26464471  0.90821358  0.12770202     0.08870
H325        H  0.25821313  0.84158686  0.13007423     0.08870
H326        H  0.18300445  0.90621707  0.37183918     0.08850
H327        H  0.19592123  0.84026948  0.37215918     0.08850
H328        H  0.13593230  0.86380509  0.34703094     0.05630
C329        C  0.73868635  0.38795630  0.69714806    -0.20180
C330        C  0.68540019  0.38576250  0.70813720    -0.06740
C331        C  0.66928135  0.38762869  0.75924191     0.14120
C332        C  0.70698054  0.38737423  0.79803942    -0.20230
C333        C  0.76026220  0.38629694  0.78704514    -0.06750
C334        C  0.77638915  0.38874509  0.73598156     0.14110
C335        C  0.83295435  0.39380584  0.72221631    -0.23580
H336        H  0.75086943  0.38799584  0.65787571     0.15400
H337        H  0.69479296  0.38690693  0.83731073     0.15430
C338        C  0.61270517  0.39151216  0.77315964    -0.23530
H339        H  0.83793311  0.39896302  0.68073412     0.05640
H340        H  0.85482312  0.36036840  0.73319178     0.08870
H341        H  0.85014117  0.42646049  0.74178183     0.08870
H342        H  0.59107782  0.35761415  0.76218794     0.08850
H343        H  0.59519262  0.42380621  0.75374507     0.08850
H344        H  0.60778425  0.39656761  0.81466985     0.05630
C345        C  0.57091738  0.45719615  0.51904192    -0.20180
C346        C  0.61871350  0.44009579  0.53795695    -0.06740
C347        C  0.66511485  0.45403246  0.51309877     0.14120
C348        C  0.66251857  0.48716559  0.47227718    -0.20230
C349        C  0.61468097  0.50469175  0.45366582    -0.06750
C350        C  0.56805474  0.48743667  0.47609113     0.14110
C351        C  0.51456860  0.49757013  0.45454860    -0.23580
H352        H  0.53512984  0.44547952  0.53699701     0.15400
H353        H  0.69828314  0.49961738  0.45487146     0.15430
C354        C  0.71717668  0.43247567  0.52740847    -0.23530
H355        H  0.49320008  0.46213420  0.44925084     0.05640
H356        H  0.51538001  0.51551130  0.41686076     0.08870
H357        H  0.49254623  0.52101151  0.48130660     0.08870
H358        H  0.71460454  0.39155175  0.52724592     0.08850
H359        H  0.73001627  0.44559570  0.56532132     0.08850
H360        H  0.74784612  0.44347046  0.50018610     0.05630
C361        C  0.27616003  0.37427882  0.75582060    -0.20180
C362        C  0.25523296  0.37392205  0.70635282    -0.06740
C363        C  0.20054785  0.37286023  0.69970028     0.14120
C364        C  0.16856699  0.37419708  0.74253640    -0.20230
C365        C  0.18947318  0.37448645  0.79200686    -0.06750
C366        C  0.24414136  0.37354011  0.79868541     0.14110
C367        C  0.26913169  0.36842822  0.85042034    -0.23580
H368        H  0.31804213  0.37395178  0.76090880     0.15400
H369        H  0.12667979  0.37380960  0.73743551     0.15430
C370        C  0.17543529  0.36699187  0.64803596    -0.23530
H371        H  0.31179114  0.36300192  0.84778258     0.05640
H372        H  0.25249944  0.33592727  0.87028652     0.08870
H373        H  0.26310101  0.40210065  0.87337821     0.08870
H374        H  0.19154142  0.33417844  0.62857613     0.08850
H375        H  0.18199651  0.40031196  0.62464492     0.08850
H376        H  0.13269224  0.36164271  0.65074936     0.05630
C377        C  0.31896805  0.48681865  0.55007729    -0.20180
C378        C  0.32161543  0.43620238  0.53863593    -0.06740
C379        C  0.32330564  0.42152645  0.48695368     0.14120
C380        C  0.32700678  0.45764564  0.44901406    -0.20230
C381        C  0.32549176  0.50818250  0.46062374    -0.06750
C382        C  0.31947110  0.52285223  0.51180892     0.14110
C383        C  0.31104460  0.57606375  0.52635147    -0.23580
H384        H  0.31677140  0.49839680  0.58936761     0.15400
H385        H  0.32986747  0.44614803  0.40971001     0.15430
C386        C  0.31865466  0.36850439  0.46984312    -0.23530
H387        H  0.30202810  0.57994082  0.56729091     0.05640
H388        H  0.27775930  0.59119169  0.50433538     0.08870
H389        H  0.34635670  0.59847369  0.51916530     0.08870
H390        H  0.30894991  0.34274437  0.50095182     0.08850
H391        H  0.35556265  0.35683777  0.45207241     0.08850
H392        H  0.28672350  0.36507598  0.44134385     0.05630
C393        C  0.66811183  0.06242707  0.75669292    -0.20180
C394        C  0.68682640  0.06431620  0.70690431    -0.06740
C395        C  0.74118575  0.06571104  0.69873811     0.14120
C396        C  0.77522294  0.06456039  0.74055514    -0.20230
C397        C  0.75655056  0.06335650  0.79032455    -0.06750
C398        C  0.70223615  0.06247966  0.79858876     0.14110
C399        C  0.67991006  0.06467352  0.85125310    -0.23580
H400        H  0.62647780  0.06229755  0.76277064     0.15400
H401        H  0.81684768  0.06611431  0.73450790     0.15430
C402        C  0.76374285  0.07161716  0.64642407    -0.23530
H403        H  0.63684737  0.06750961  0.85027566     0.05640
H404        H  0.69555499  0.09750602  0.87170532     0.08870
H405        H  0.68975021  0.03080738  0.87269881     0.08870
H406        H  0.74709190  0.10471176  0.62771748     0.08850
H407        H  0.75537419  0.03844802  0.62304196     0.08850
H408        H  0.80666427  0.07638992  0.64786173     0.05630
C409        C  0.58167757  0.96269499  0.46812044    -0.20180
C410        C  0.62910295  0.94020194  0.45723539    -0.06740
C411        C  0.67400044  0.95412730  0.48532943     0.14120
C412        C  0.67021278  0.99082715  0.52272747    -0.20230
C413        C  0.62239677  0.01281220  0.53456929    -0.06750
C414        C  0.57737481  0.99806025  0.50659554     0.14110
C415        C  0.52377128  0.01632125  0.51848196    -0.23580
H416        H  0.54728633  0.95192598  0.44654651     0.15400
H417        H  0.70500674  0.00195512  0.54337659     0.15430
C418        C  0.72554372  0.92923971  0.47795322    -0.23530
H419        H  0.49326598  0.99295086  0.50023517     0.05640
H420        H  0.51795190  0.05398145  0.50336857     0.08870
H421        H  0.51789504  0.01539513  0.56007761     0.08870
H422        H  0.74217562  0.94047015  0.44120973     0.08850
H423        H  0.72061590  0.88851929  0.47940717     0.08850
H424        H  0.75417771  0.93999700  0.50787529     0.05630
C425        C  0.20645776  0.06720631  0.70557218    -0.20180
C426        C  0.26000251  0.07045256  0.71589376    -0.06740
C427        C  0.27749988  0.07121655  0.76703942     0.14120
C428        C  0.24082858  0.07279154  0.80618285    -0.20230
C429        C  0.18722487  0.07220909  0.79563769    -0.06750
C430        C  0.16988791  0.06724369  0.74470720     0.14110
C431        C  0.11317517  0.05987024  0.73132587    -0.23580
H432        H  0.19311348  0.06512753  0.66646935     0.15400
H433        H  0.25405756  0.07494764  0.84531293     0.15430
C434        C  0.33444927  0.06809377  0.78082347    -0.23530
H435        H  0.10747133  0.05217601  0.69022585     0.05640
H436        H  0.09053686  0.09332231  0.74026111     0.08870
H437        H  0.09734508  0.02794822  0.75272714     0.08870
H438        H  0.35560351  0.10173417  0.76878653     0.08850
H439        H  0.35170722  0.03525375  0.76240942     0.08850
H440        H  0.34042161  0.06444026  0.82244830     0.05630
C441        C  0.27682819  0.99293639  0.52444937    -0.20180
C442        C  0.32340782  0.00279824  0.55064610    -0.06740
C443        C  0.36750525  0.97435916  0.53962979     0.14120
C444        C  0.36654366  0.94257234  0.49756419    -0.20230
C445        C  0.32023908  0.93295757  0.46997190    -0.06750
C446        C  0.27397604  0.95640550  0.48648849     0.14110
C447        C  0.22058321  0.94108617  0.46847220    -0.23580
H448        H  0.24194040  0.01249621  0.53510671     0.15400
H449        H  0.40237037  0.92474725  0.48699845     0.15430
C450        C  0.41411736  0.97479291  0.57460674    -0.23530
H451        H  0.19367636  0.93908831  0.50113757     0.05640
H452        H  0.22069730  0.90359049  0.45174622     0.08870
H453        H  0.20533430  0.96848512  0.44091959     0.08870
H454        H  0.40187063  0.96407750  0.61336460     0.08850
H455        H  0.43161086  0.01212393  0.57631915     0.08850
H456        H  0.44412730  0.94817159  0.56232829     0.05630
loop_ 
_geom_bond_atom_site_label_1 
_geom_bond_atom_site_label_2 
_geom_bond_distance 
_geom_bond_site_symmetry_2 
_ccdc_geom_bond_type 
C1            C2   1.404       .  A
C1            C6   1.406       .  A
C1          C426   1.486       .  S
C2            C3   1.403       .  A
C2            H7   1.083       .  S
C3            C4   1.404       .  A
C3           C22   1.480       .  S
C4            C5   1.407       .  A
C4            H8   1.084       .  S
C5            C6   1.403       .  A
C5          C442   1.486       .  S
C6            H9   1.084       .  S
O10          V18   1.897       .  S
O10          C20   1.264       .  A
O11          V18   1.896       .  S
O11          C21   1.264       .  A
O12          V18   1.908       .  S
O12          C22   1.266       .  A
O13          V18   1.901       .  S
O13          C23   1.265       .  A
O14          V19   1.895       .  S
O14          C23   1.264       .  A
O15          V19   1.898       .  S
O15          C22   1.264       .  A
O16          V19   1.902       .  S
O16          C21   1.265       .  A
O17          V19   1.901       .  S
O17          C20   1.265       .  A
V18          V19   2.087       .  T
C20          C35   1.474       .  S
C21          C26   1.477       .  S
C23          C44   1.474       .  S
C24          C25   1.403       .  A
C24          C29   1.402       .  A
C24         C394   1.482       .  S
C25          C26   1.401       .  A
C25          H30   1.084       .  S
C26          C27   1.403       .  A
C27          C28   1.405       .  A
C27          H31   1.078       .  S
C28          C29   1.407       .  A
C28         C413   1.497       .  S
C29          H32   1.083       .  S
C33          C34   1.406       .  A
C33          C38   1.408       .  A
C33         C378   1.493       .  S
C34          C35   1.403       .  A
C34          H39   1.084       .  S
C35          C36   1.401       .  A
C36          C37   1.404       .  A
C36          H40   1.084       .  S
C37          C38   1.406       .  A
C37         C362   1.488       .  S
C38          H41   1.082       .  S
C42          C43   1.402       .  A
C42          C47   1.403       .  A
C42         C330   1.481       .  S
C43          C44   1.402       .  A
C43          H48   1.083       .  S
C44          C45   1.401       .  A
C45          C46   1.405       .  A
C45          H49   1.084       .  S
C46          C47   1.404       .  A
C46         C346   1.485       .  S
C47          H50   1.082       .  S
C51          C52   1.409       .  A
C51          C56   1.404       .  A
C51         C314   1.493       .  S
C52          C53   1.414       .  A
C52          H57   1.081       .  S
C53          C54   1.412       .  A
C53         C445   1.508       .  S
C54          C55   1.404       .  A
C54          H58   1.082       .  S
C55          C56   1.401       .  A
C55          C71   1.481       .  S
C56          H59   1.084       .  S
O60          V68   1.898       .  S
O60          C70   1.265       .  A
O61          V68   1.903       .  S
O61          C71   1.265       .  A
O62          V68   1.900       .  S
O62          C72   1.264       .  A
O63          V68   1.901       .  S
O63          C73   1.265       .  A
O64          V69   1.899       .  S
O64          C73   1.265       .  A
O65          V69   1.899       .  S
O65          C72   1.265       .  A
O66          V69   1.902       .  S
O66          C71   1.266       .  A
O67          V69   1.899       .  S
O67          C70   1.264       .  A
V68          V69   2.087       .  T
C70          C96   1.474       .  S
C72          C85   1.475       .  S
C73          C78   1.476       .  S
C74          C75   1.402       .  A
C74          C79   1.403       .  A
C74         C301   1.480       .  S
C75          C76   1.402       .  A
C75          H80   1.082       .  S
C76          C77   1.407       .  A
C76         C410   1.485       .  S
C77          C78   1.402       .  A
C77          H81   1.084       .  S
C78          C79   1.402       .  A
C79          H82   1.084       .  S
C83          C84   1.405       .  A
C83          C88   1.406       .  A
C83         C381   1.488       .  S
C84          C85   1.404       .  A
C84          H89   1.083       .  S
C85          C86   1.401       .  A
C86          C87   1.403       .  A
C86          H90   1.084       .  S
C87          C88   1.405       .  A
C87         C282   1.486       .  S
C88          H91   1.082       .  S
C92          C93   1.403       .  A
C92          C97   1.405       .  A
C92         C266   1.484       .  S
C93          C94   1.406       .  A
C93          H98   1.083       .  S
C94          C95   1.404       .  A
C94         C349   1.488       .  S
C95          C96   1.401       .  A
C95          H99   1.084       .  S
C96          C97   1.403       .  A
C97         H100   1.084       .  S
O101        V109   1.899   1_455  S
O101        C111   1.264       .  A
O102        V109   1.897       .  S
O102        C112   1.263       .  A
O103        V109   1.902   1_455  S
O103        C113   1.265       .  A
O104        V109   1.898       .  S
O104        C114   1.265       .  A
O105        V110   1.898       .  S
O105        C114   1.264       .  A
O106        V110   1.901   1_455  S
O106        C113   1.265       .  A
O107        V110   1.897       .  S
O107        C112   1.265       .  A
O108        V110   1.899   1_455  S
O108        C111   1.265       .  A
V109        V110   2.088       .  T
C111        C128   1.475       .  S
C112        C135   1.472       .  S
C113        C119   1.478       .  S
C114        C144   1.474       .  S
C115        C116   1.406       .  A
C115        C120   1.407       .  A
C115        C317   1.490       .  S
C116        C117   1.406       .  A
C116        H121   1.082       .  S
C117        C118   1.404       .  A
C117        C250   1.486       .  S
C118        C119   1.403       .  A
C118        H122   1.083       .  S
C119        C120   1.403       .  A
C120        H123   1.084       .  S
C124        C125   1.406       .  A
C124        C129   1.407       .  A
C124        C237   1.490       .  S
C125        C126   1.405       .  A
C125        H130   1.080       .  S
C126        C127   1.403       .  A
C126        C285   1.485       .  S
C127        C128   1.400       .  A
C127        H131   1.084       .  S
C128        C129   1.404       .  A
C129        H132   1.084       .  S
C133        C134   1.402       .  A
C133        C138   1.406       .  A
C133        C298   1.485       .  S
C134        C135   1.398       .  A
C134        H139   1.084       .  S
C135        C136   1.401       .  A
C136        C137   1.408       .  A
C136        H140   1.083       .  S
C137        C138   1.409       .  A
C137        C218   1.494       .  S
C138        H141   1.080       .  S
C142        C143   1.405       .  A
C142        C147   1.405       .  A
C142        C269   1.484       .  S
C143        C144   1.403       .  A
C143        H148   1.084       .  S
C144        C145   1.400       .  A
C145        C146   1.402       .  A
C145        H149   1.082       .  S
C146        C147   1.406       .  A
C146        C202   1.487       .  S
C147        H150   1.083       .  S
O151        V159   1.899   1_455  S
O151        C161   1.264       .  A
O152        V159   1.896       .  S
O152        C162   1.264       .  A
O153        V159   1.895       .  S
O153        C163   1.264       .  A
O154        V159   1.900   1_455  S
O154        C164   1.265       .  A
O155        V160   1.899   1_455  S
O155        C164   1.264       .  A
O156        V160   1.896       .  S
O156        C163   1.264       .  A
O157        V160   1.899       .  S
O157        C162   1.265       .  A
O158        V160   1.901   1_455  S
O158        C161   1.265       .  A
V159        V160   2.088       .  T
C161        C178   1.474       .  S
C162        C196   1.474       .  S
C163        C187   1.471       .  S
C164        C167   1.475       .  S
C165        C166   1.406       .  A
C165        C170   1.407       .  A
C165        C234   1.492       .  S
C166        C167   1.402       .  A
C166        H171   1.084       .  S
C167        C168   1.401       .  A
C168        C169   1.404       .  A
C168        H172   1.084       .  S
C169        C170   1.406       .  A
C169        C365   1.488       .  S
C170        H173   1.079       .  S
C174        C175   1.406       .  A
C174        C179   1.402       .  A
C174        C429   1.485       .  S
C175        C176   1.410       .  A
C175        H180   1.083       .  S
C176        C177   1.407       .  A
C176        C253   1.497       .  S
C177        C178   1.403       .  A
C177        H181   1.080       .  S
C178        C179   1.399       .  A
C179        H182   1.084       .  S
C183        C184   1.405       .  A
C183        C188   1.402       .  A
C183        C221   1.484       .  S
C184        C185   1.402       .  A
C184        H189   1.083   1_545  S
C185        C186   1.403       .  A
C185        C397   1.481       .  S
C186        C187   1.400       .  A
C186        H190   1.084       .  S
C187        C188   1.401       .  A
C188        H191   1.082       .  S
C192        C193   1.403       .  A
C192        C197   1.403       .  A
C192        C333   1.481       .  S
C193        C194   1.405       .  A
C193        H198   1.081       .  S
C194        C195   1.406       .  A
C194        C205   1.489       .  S
C195        C196   1.402       .  A
C195        H199   1.084       .  S
C196        C197   1.401       .  A
C197        H200   1.083       .  S
C201        C202   1.405       .  A
C201        C206   1.404   1_554  A
C201        H208   1.084       .  S
C202        C203   1.417       .  A
C203        C204   1.401   1_554  A
C203        C210   1.512       .  S
C204        C205   1.405       .  A
C204        H209   1.084       .  S
C205        C206   1.418       .  A
C206        C207   1.509       .  S
C207        H211   1.111       .  S
C207        H212   1.110       .  S
C207        H213   1.106       .  S
C210        H214   1.110       .  S
C210        H215   1.106       .  S
C210        H216   1.111       .  S
C217        C218   1.408       .  A
C217        C222   1.403   1_554  A
C217        H224   1.084       .  S
C218        C219   1.419       .  A
C219        C220   1.401   1_554  A
C219        C226   1.505       .  S
C220        C221   1.402   1_565  A
C220        H225   1.084   1_565  S
C221        C222   1.416   1_545  A
C222        C223   1.511       .  S
C223        H227   1.111       .  S
C223        H228   1.106   1_565  S
C223        H229   1.110       .  S
C226        H230   1.106       .  S
C226        H231   1.110       .  S
C226        H232   1.111       .  S
C233        C234   1.406   1_554  A
C233        C238   1.404       .  A
C233        H240   1.084       .  S
C234        C235   1.418       .  A
C235        C236   1.405       .  A
C235        C242   1.509       .  S
C236        C237   1.405   1_556  A
C236        H241   1.084       .  S
C237        C238   1.417       .  A
C238        C239   1.509       .  S
C239        H243   1.111       .  S
C239        H244   1.110       .  S
C239        H245   1.106       .  S
C242        H246   1.110       .  S
C242        H247   1.106       .  S
C242        H248   1.111       .  S
C249        C250   1.402       .  A
C249        C254   1.406   1_565  A
C249        H256   1.084       .  S
C250        C251   1.413   1_554  A
C251        C252   1.404       .  A
C251        C258   1.509       .  S
C252        C253   1.408   1_565  A
C252        H257   1.084       .  S
C253        C254   1.422   1_556  A
C254        C255   1.510       .  S
C255        H259   1.111       .  S
C255        H260   1.106       .  S
C255        H261   1.110       .  S
C258        H262   1.107       .  S
C258        H263   1.111       .  S
C258        H264   1.111       .  S
C265        C266   1.403       .  A
C265        C270   1.404       .  A
C265        H272   1.084       .  S
C266        C267   1.416       .  A
C267        C268   1.404       .  A
C267        C274   1.509       .  S
C268        C269   1.403       .  A
C268        H273   1.084       .  S
C269        C270   1.416       .  A
C270        C271   1.508       .  S
C271        H275   1.111       .  S
C271        H276   1.108       .  S
C271        H277   1.110       .  S
C274        H278   1.108       .  S
C274        H279   1.110       .  S
C274        H280   1.111       .  S
C281        C282   1.405       .  A
C281        C286   1.403       .  A
C281        H288   1.084       .  S
C282        C283   1.415       .  A
C283        C284   1.403       .  A
C283        C290   1.509       .  S
C284        C285   1.405       .  A
C284        H289   1.084       .  S
C285        C286   1.415       .  A
C286        C287   1.509       .  S
C287        H291   1.111       .  S
C287        H292   1.111       .  S
C287        H293   1.107       .  S
C290        H294   1.110       .  S
C290        H295   1.107       .  S
C290        H296   1.111       .  S
C297        C298   1.404       .  A
C297        C302   1.401       .  A
C297        H304   1.084       .  S
C298        C299   1.416       .  A
C299        C300   1.402       .  A
C299        C306   1.505       .  S
C300        C301   1.401       .  A
C300        H305   1.084       .  S
C301        C302   1.414       .  A
C302        C303   1.506       .  S
C303        H307   1.111       .  S
C303        H308   1.111       .  S
C303        H309   1.104       .  S
C306        H310   1.110       .  S
C306        H311   1.103       .  S
C306        H312   1.111       .  S
C313        C314   1.406       .  A
C313        C318   1.407       .  A
C313        H320   1.084       .  S
C314        C315   1.417       .  A
C315        C316   1.403       .  A
C315        C322   1.505       .  S
C316        C317   1.403       .  A
C316        H321   1.084       .  S
C317        C318   1.417       .  A
C318        C319   1.508       .  S
C319        H323   1.111       .  S
C319        H324   1.107       .  S
C319        H325   1.110       .  S
C322        H326   1.105       .  S
C322        H327   1.111       .  S
C322        H328   1.111       .  S
C329        C330   1.404       .  A
C329        C334   1.403       .  A
C329        H336   1.084       .  S
C330        C331   1.414       .  A
C331        C332   1.402       .  A
C331        C338   1.508       .  S
C332        C333   1.404       .  A
C332        H337   1.084       .  S
C333        C334   1.414       .  A
C334        C335   1.508       .  S
C335        H339   1.111       .  S
C335        H340   1.107       .  S
C335        H341   1.110       .  S
C338        H342   1.107       .  S
C338        H343   1.110       .  S
C338        H344   1.111       .  S
C345        C346   1.404       .  A
C345        C350   1.400       .  A
C345        H352   1.085       .  S
C346        C347   1.416       .  A
C347        C348   1.404       .  A
C347        C354   1.509       .  S
C348        C349   1.406       .  A
C348        H353   1.084       .  S
C349        C350   1.419       .  A
C350        C351   1.510       .  S
C351        H355   1.111       .  S
C351        H356   1.107       .  S
C351        H357   1.110       .  S
C354        H358   1.110       .  S
C354        H359   1.107       .  S
C354        H360   1.111       .  S
C361        C362   1.405       .  A
C361        C366   1.404       .  A
C361        H368   1.084       .  S
C362        C363   1.416       .  A
C363        C364   1.404       .  A
C363        C370   1.509       .  S
C364        C365   1.405       .  A
C364        H369   1.084       .  S
C365        C366   1.416       .  A
C366        C367   1.509       .  S
C367        H371   1.111       .  S
C367        H372   1.110       .  S
C367        H373   1.107       .  S
C370        H374   1.111       .  S
C370        H375   1.107       .  S
C370        H376   1.111       .  S
C377        C378   1.406       .  A
C377        C382   1.405       .  A
C377        H384   1.084       .  S
C378        C379   1.419       .  A
C379        C380   1.404       .  A
C379        C386   1.509       .  S
C380        C381   1.404       .  A
C380        H385   1.085       .  S
C381        C382   1.416       .  A
C382        C383   1.509       .  S
C383        H387   1.111       .  S
C383        H388   1.111       .  S
C383        H389   1.107       .  S
C386        H390   1.107       .  S
C386        H391   1.110       .  S
C386        H392   1.111       .  S
C393        C394   1.403       .  A
C393        C398   1.404       .  A
C393        H400   1.084       .  S
C394        C395   1.417       .  A
C395        C396   1.401       .  A
C395        C402   1.509       .  S
C396        C397   1.402       .  A
C396        H401   1.084       .  S
C397        C398   1.416       .  A
C398        C399   1.508       .  S
C399        H403   1.111       .  S
C399        H404   1.110       .  S
C399        H405   1.108       .  S
C402        H406   1.110       .  S
C402        H407   1.108       .  S
C402        H408   1.111       .  S
C409        C410   1.399       .  A
C409        C414   1.400       .  A
C409        H416   1.085       .  S
C410        C411   1.414       .  A
C411        C412   1.404       .  A
C411        C418   1.506       .  S
C412        C413   1.408   1_565  A
C412        H417   1.083   1_565  S
C413        C414   1.421   1_545  A
C414        C415   1.504   1_565  S
C415        H419   1.110   1_545  S
C415        H420   1.107       .  S
C415        H421   1.108       .  S
C418        H422   1.105       .  S
C418        H423   1.111       .  S
C418        H424   1.111       .  S
C425        C426   1.403       .  A
C425        C430   1.403       .  A
C425        H432   1.084       .  S
C426        C427   1.417       .  A
C427        C428   1.405       .  A
C427        C434   1.508       .  S
C428        C429   1.403       .  A
C428        H433   1.084       .  S
C429        C430   1.416       .  A
C430        C431   1.509       .  S
C431        H435   1.111       .  S
C431        H436   1.107       .  S
C431        H437   1.110       .  S
C434        H438   1.107       .  S
C434        H439   1.110       .  S
C434        H440   1.111       .  S
C441        C442   1.401   1_565  A
C441        C446   1.407       .  A
C441        H448   1.084   1_565  S
C442        C443   1.408   1_545  A
C443        C444   1.403       .  A
C443        C450   1.505       .  S
C444        C445   1.412       .  A
C444        H449   1.082       .  S
C445        C446   1.424       .  A
C446        C447   1.504       .  S
C447        H451   1.111       .  S
C447        H452   1.107       .  S
C447        H453   1.110       .  S
C450        H454   1.110       .  S
C450        H455   1.105   1_565  S
C450        H456   1.110       .  S
