geometry optimzed in LAMMPS
_audit_creation_date              2020-11-30 
_audit_creation_method            'lammps2cif' 
_symmetry_space_group_name_H-M    'P1' 
_symmetry_Int_Tables_number       1 
_symmetry_cell_setting            triclinic 
loop_ 
_symmetry_equiv_pos_as_xyz 
  x,y,z 
_cell_length_a                    23.11839739478811 
_cell_length_b                    64.59982116191307 
_cell_length_c                    38.42651537651227 
_cell_angle_alpha                 89.30670155318336 
_cell_angle_beta                  84.87493986868297 
_cell_angle_gamma                 101.32397420842909 
loop_ 
_atom_site_label 
_atom_site_type_symbol 
_atom_site_fract_x 
_atom_site_fract_y 
_atom_site_fract_z 
_atom_site_charge 
C1          C  0.25011468  0.11656787  0.99923792     0.04090
C2          C  0.26945666  0.10923335  0.16802385    -0.12060
C3          C  0.28848235  0.08981499  0.16607191     0.01590
C4          C  0.29969102  0.08048265  0.19810243    -0.10580
C5          C  0.28608725  0.08906456  0.03098600     0.04090
C6          C  0.26317265  0.10772567  0.03058436    -0.10000
H7          H  0.26172000  0.11689017  0.14430452     0.09680
H8          H  0.31772112  0.06628200  0.19714012     0.07210
H9          H  0.25362686  0.11511866  0.05489015     0.07060
C10         C  0.22226985  0.95387039  0.10037824     0.04090
C11         C  0.21911005  0.94300280  0.06901671    -0.12060
C12         C  0.20797770  0.92083564  0.06886828     0.01590
C13         C  0.20067445  0.90973264  0.10196343    -0.10580
C14         C  0.20771223  0.92047263  0.13419396     0.04090
C15         C  0.21790884  0.94269217  0.13238892    -0.10000
H16         H  0.22803139  0.95207218  0.04459294     0.09680
H17         H  0.19008898  0.89268511  0.10244641     0.07210
H18         H  0.22497501  0.95168923  0.15572191     0.07060
C19         C  0.27891321  0.04522816  0.10025865     0.04090
C20         C  0.28259214  0.05611526  0.06811237    -0.12060
C21         C  0.29087383  0.07825491  0.06593697     0.01590
C22         C  0.29714993  0.08935750  0.09788774    -0.10580
C23         C  0.29107685  0.07856665  0.13125514     0.04090
C24         C  0.28136538  0.05634045  0.13139191    -0.10000
H25         H  0.27597307  0.04690907  0.04495561     0.09680
H26         H  0.30630806  0.10639676  0.09670832     0.07210
H27         H  0.27273337  0.04730581  0.15582215     0.07060
C28         C  0.24220544  0.87996639  0.20004490     0.04090
C29         C  0.23380098  0.89117735  0.03215784    -0.12060
C30         C  0.21071957  0.90972710  0.03410830     0.01590
C31         C  0.20088488  0.91825855  0.20207316    -0.10580
C32         C  0.21095599  0.90908686  0.16898641     0.04090
C33         C  0.23022103  0.88970803  0.16901837    -0.10000
H34         H  0.24830590  0.88549383  0.05565319     0.09680
H35         H  0.18310697  0.93251995  0.20309944     0.07210
H36         H  0.23820900  0.88275378  0.14429718     0.07060
C37         C  0.26655133  0.85988831  0.19949168     0.04090
C38         C  0.27981990  0.85094662  0.02996279    -0.12060
C39         C  0.31150010  0.83441672  0.02757158     0.01590
C40         C  0.33145756  0.82763853  0.20087076    -0.10580
C41         C  0.31497412  0.83382307  0.16946537     0.04090
C42         C  0.28702986  0.85123271  0.16807945    -0.10000
H43         H  0.25915880  0.85386888  0.05524815     0.09680
H44         H  0.35594925  0.81493054  0.20112535     0.07210
H45         H  0.27842770  0.85650802  0.14268440     0.07060
O46         O  0.25330872  0.81280669  0.13224742    -0.56850
C47         C  0.16071576  0.75509904  0.10373258     0.75780
O48         O  0.32723045  0.80177034  0.05059879    -0.58010
C49         C  0.30217987  0.81658960  0.14554951     0.75750
C50         C  0.36270152  0.75721763  0.10013215     0.78140
Cd51       Cd  0.27494817  0.78279510  0.10104590     1.37470
O52         O  0.18360914  0.76127911  0.13150379    -0.56850
O53         O  0.33727247  0.76204281  0.12869508    -0.55660
C54         C  0.29829716  0.81659598  0.05263537     0.78100
O55         O  0.34650536  0.76381877  0.07203333    -0.58030
O56         O  0.19069828  0.76148155  0.07508513    -0.56480
O57         O  0.33554324  0.80325641  0.14101173    -0.56470
O58         O  0.25414337  0.81435732  0.07510135    -0.55640
C59         C  0.97562007  0.63706566  0.00160917     0.04090
C60         C  0.97394440  0.64874430  0.03252910    -0.12060
C61         C  0.94468250  0.66587579  0.03431421     0.01590
C62         C  0.91161803  0.66962502  0.00755474    -0.10580
C63         C  0.92800908  0.66287025  0.17522336     0.04090
C64         C  0.95542195  0.64532637  0.17202861    -0.10000
H65         H  0.99851664  0.64580880  0.05409107     0.09680
H66         H  0.88769989  0.68249403  0.00965382     0.07210
H67         H  0.96786750  0.64087182  0.14592423     0.07060
O68         O  0.99475751  0.68286707  0.13154949    -0.56850
C69         C  0.10194718  0.74139926  0.10442023     0.75780
O70         O  0.44569357  0.70153647  0.05367534    -0.58010
C71         C  0.46586453  0.68523353  0.14660856     0.75750
C72         C  0.40904620  0.74461005  0.09958197     0.78140
Cd73       Cd  0.98579508  0.71550125  0.10445467     1.37460
O74         O  0.07094479  0.73508721  0.13282879    -0.56850
O75         O  0.42571154  0.73814773  0.12762772    -0.55660
C76         C  0.96106495  0.68331820  0.05746676     0.78100
O77         O  0.43431463  0.73975067  0.07101195    -0.58030
O78         O  0.07963886  0.73552430  0.07638181    -0.56480
O79         O  0.43806842  0.70034629  0.14667741    -0.56470
O80         O  0.00704135  0.68516189  0.07355427    -0.55640
O81         O  0.45325848  0.30741553  0.12174415    -0.56850
C82         C  0.35370984  0.24840183  0.09243733     0.75780
O83         O  0.05024555  0.29591188  0.05352315    -0.58010
C84         C  0.98170185  0.30436672  0.14344057     0.75750
C85         C  0.05349112  0.24709397  0.09181137     0.78140
Cd86       Cd  0.46925613  0.27474741  0.09300914     1.37470
O87         O  0.37607838  0.25411160  0.12049069    -0.56850
O88         O  0.02964393  0.25347868  0.11956559    -0.55660
C89         C  0.51564309  0.31006135  0.04902531     0.78100
O90         O  0.03872985  0.25336748  0.06306935    -0.58030
O91         O  0.38432593  0.25513935  0.06409786    -0.56480
O92         O  0.99862910  0.28684649  0.14463318    -0.56470
O93         O  0.46298210  0.30739694  0.06298928    -0.55640
C94         C  0.53229690  0.36140740  0.99853625     0.04090
C95         C  0.51531176  0.34661131  0.02670738    -0.12060
C96         C  0.54357368  0.32936213  0.02899272     0.01590
C97         C  0.59322372  0.32865219  0.00625965    -0.10580
C98         C  0.51016679  0.32237721  0.16765265     0.04090
C99         C  0.49065725  0.34172035  0.16944213    -0.10000
H100        H  0.47866025  0.34792640  0.04563825     0.09680
H101        H  0.61531997  0.31539019  0.00843931     0.07210
H102        H  0.46200929  0.34545193  0.15048328     0.07060
O103        O  0.26538728  0.22808022  0.12180390    -0.56850
C104        C  0.16965440  0.17553497  0.15024374     0.75780
O105        O  0.12247546  0.22738614  0.06553806    -0.58010
C106        C  0.29524203  0.23445867  0.09316241     0.75750
C107        C  0.15937454  0.17251162  0.05108232     0.78140
Cd108      Cd  0.18078766  0.20625780  0.09640520     1.37460
O109        O  0.20290039  0.17513722  0.12260152    -0.56850
O110        O  0.20929449  0.17902295  0.06227822    -0.55660
C111        C  0.09629540  0.23311386  0.09312016     0.78100
O112        O  0.11841996  0.18245420  0.05968981    -0.58030
O113        O  0.13936499  0.18998219  0.15247690    -0.56480
O114        O  0.27235025  0.22806363  0.06553109    -0.56470
O115        O  0.10877371  0.22625956  0.12203654    -0.55640
C116        C  0.23513636  0.13871711  0.20225082     0.04090
C117        C  0.18270328  0.13984803  0.02660157    -0.12060
C118        C  0.15482805  0.15721235  0.02372065     0.01590
C119        C  0.15826523  0.16745035  0.99161403    -0.10580
C120        C  0.17595675  0.16271957  0.18053563     0.04090
C121        C  0.19976802  0.14435943  0.17689637    -0.10000
H122        H  0.17643891  0.13097240  0.05115519     0.09680
H123        H  0.13476139  0.18035398  0.98958611     0.07210
H124        H  0.19219822  0.13524413  0.15375137     0.07060
C125        C  0.50694713  0.38091944  0.99791789     0.04090
C126        C  0.49797758  0.39101626  0.02951714    -0.12060
C127        C  0.47499941  0.40953088  0.03118567     0.01590
C128        C  0.46172683  0.41819846  0.99918933    -0.10580
C129        C  0.47254416  0.40822464  0.16582978     0.04090
C130        C  0.48765802  0.38818134  0.16621918    -0.10000
H131        H  0.51210588  0.38480747  0.05289821     0.09680
H132        H  0.44280818  0.43221732  0.99990834     0.07210
H133        H  0.50005428  0.38133723  0.14184331     0.07060
C134        C  0.52065200  0.54417226  0.10099679     0.04090
C135        C  0.52285496  0.55505362  0.06901396    -0.12060
C136        C  0.53117353  0.57715762  0.06706232     0.01590
C137        C  0.53739723  0.58816961  0.09907452    -0.10580
C138        C  0.53313202  0.57731547  0.13224557     0.04090
C139        C  0.52643161  0.55520305  0.13206658    -0.10000
H140        H  0.51574581  0.54591907  0.04580661     0.09680
H141        H  0.54562911  0.60521852  0.09809787     0.07210
H142        H  0.52359920  0.54615543  0.15619143     0.07060
C143        C  0.48847859  0.45340101  0.09756692     0.04090
C144        C  0.48137099  0.44267525  0.06629111    -0.12060
C145        C  0.47184091  0.42054513  0.06588972     0.01590
C146        C  0.46538846  0.40932950  0.09878980    -0.10580
C147        C  0.47291075  0.41993305  0.13101153     0.04090
C148        C  0.48489327  0.44213840  0.12937161    -0.10000
H149        H  0.48514395  0.45183920  0.04217873     0.09680
H150        H  0.45439313  0.39228759  0.09918014     0.07210
H151        H  0.49303143  0.45105323  0.15268760     0.07060
C152        C  0.49624239  0.61683890  0.00075737     0.04090
C153        C  0.50447757  0.60668508  0.03202940    -0.12060
C154        C  0.52757042  0.58816907  0.03221344     0.01590
C155        C  0.54284612  0.57947545  0.19899295    -0.10580
C156        C  0.53017519  0.58845521  0.16708037     0.04090
C157        C  0.50874277  0.60739399  0.16905133    -0.10000
H158        H  0.48974183  0.61275568  0.05663979     0.09680
H159        H  0.56145030  0.56540049  0.19830382     0.07210
H160        H  0.49473714  0.61343621  0.14567223     0.07060
C161        C  0.06065997  0.51141800  0.08590258    -0.04820
C162        C  0.51177247  0.52087402  0.10154328     0.01110
C163        C  0.45771583  0.50775310  0.11503699    -0.07460
C164        C  0.45205567  0.48576210  0.11293043    -0.04840
C165        C  0.49812940  0.47671057  0.09756059     0.01100
C166        C  0.05481009  0.48940256  0.08381853    -0.07370
C167        C  0.10650729  0.48022488  0.06795185     0.63010
H168        H  0.10134313  0.52180481  0.07548200     0.13700
H169        H  0.41137899  0.47534388  0.12328065     0.13710
C170        C  0.40581907  0.51685969  0.13083306     0.63240
F171        F  0.14833267  0.49443027  0.25528119    -0.21920
F172        F  0.09238210  0.47047487  0.03717442    -0.19250
F173        F  0.11964972  0.46563134  0.09109923    -0.18930
F174        F  0.39236820  0.53133129  0.10757664    -0.18980
F175        F  0.41984694  0.52672697  0.16153127    -0.19310
F176        F  0.35175150  0.50250371  0.94022131    -0.21980
C177        C  0.20995077  0.01161420  0.09184659    -0.04820
C178        C  0.26548697  0.02179188  0.10126991     0.01110
C179        C  0.30721898  0.00962696  0.10990971    -0.07460
C180        C  0.29135780  0.98746608  0.10914253    -0.04840
C181        C  0.23581540  0.97729749  0.09968647     0.01100
C182        C  0.19418824  0.98947316  0.09091266    -0.07370
C183        C  0.13305649  0.97916487  0.08129407     0.63010
H184        H  0.17897534  0.02126982  0.08510983     0.13700
H185        H  0.32235321  0.97780691  0.11583010     0.13710
C186        C  0.36859867  0.01998025  0.11903481     0.63240
F187        F  0.09761239  0.99383601  0.07729883    -0.21920
F188        F  0.10515273  0.96470272  0.10729353    -0.19250
F189        F  0.13786856  0.96895166  0.05009608    -0.18930
F190        F  0.36435743  0.03056040  0.14990363    -0.18980
F191        F  0.39626346  0.03414398  0.09255572    -0.19310
F192        F  0.40392077  0.00530049  0.12332114    -0.21940
C193        C  0.25842126  0.11861421  0.20031128     0.04090
C194        C  0.25986293  0.10587511  0.36836788    -0.12060
C195        C  0.28582857  0.08802957  0.36618817     0.01590
C196        C  0.30079330  0.07956811  0.39793528    -0.10580
C197        C  0.28757059  0.08925411  0.23131934     0.04090
C198        C  0.26642817  0.10822669  0.23144156    -0.10000
H199        H  0.24406477  0.11160243  0.34515385     0.09680
H200        H  0.32120488  0.06587920  0.39684535     0.07210
H201        H  0.25318171  0.11458572  0.25610212     0.07060
C202        C  0.22401351  0.95357860  0.29977435     0.04090
C203        C  0.22191496  0.94260953  0.26856123    -0.12060
C204        C  0.21200551  0.92045851  0.26861686     0.01590
C205        C  0.20546367  0.90954832  0.30190170    -0.10580
C206        C  0.21081222  0.92056769  0.33398885     0.04090
C207        C  0.21937068  0.94267804  0.33196585    -0.10000
H208        H  0.23068286  0.95166525  0.24413162     0.09680
H209        H  0.19674851  0.89248230  0.30287516     0.07210
H210        H  0.22527637  0.95178887  0.35529101     0.07060
C211        C  0.27974063  0.04454111  0.29926070     0.04090
C212        C  0.28309989  0.05574391  0.26742369    -0.12060
C213        C  0.29097228  0.07788170  0.26597953     0.01590
C214        C  0.29640853  0.08852666  0.29837218    -0.10580
C215        C  0.29037203  0.07728124  0.33127852     0.04090
C216        C  0.28191597  0.05519258  0.33078286    -0.10000
H217        H  0.27681121  0.04678679  0.24398787     0.09680
H218        H  0.30464065  0.10557992  0.29812572     0.07210
H219        H  0.27393650  0.04596377  0.35505129     0.07060
C220        C  0.24723495  0.88139215  0.40078125     0.04090
C221        C  0.23573740  0.89044473  0.23178897    -0.12060
C222        C  0.21429451  0.90931652  0.23384167     0.01590
C223        C  0.19898012  0.91816629  0.40192385    -0.10580
C224        C  0.21394686  0.90959529  0.36897393     0.04090
C225        C  0.23882015  0.89146271  0.36936924    -0.10000
H226        H  0.25072597  0.88453048  0.25503073     0.09680
H227        H  0.17964390  0.93210311  0.40245025     0.07210
H228        H  0.25503712  0.88581038  0.34475710     0.07060
C229        C  0.27629657  0.86252045  0.39924113     0.04090
C230        C  0.26565227  0.84769639  0.23056518    -0.12060
C231        C  0.29559071  0.83070275  0.23029860     0.01590
C232        C  0.34732871  0.83234020  0.39007097    -0.10580
C233        C  0.30537831  0.83340238  0.36691423     0.04090
C234        C  0.27203883  0.84936939  0.37008793    -0.10000
H235        H  0.23910759  0.85033533  0.25410189     0.09680
H236        H  0.37333540  0.82008562  0.38701676     0.07210
H237        H  0.24070251  0.85057834  0.35120019     0.07060
O238        O  0.23342369  0.80932063  0.33950522    -0.56850
C239        C  0.14072035  0.75287559  0.30871449     0.75780
O240        O  0.30542993  0.79749063  0.25395877    -0.58010
C241        C  0.28615575  0.81449555  0.34747412     0.75750
C242        C  0.33925991  0.75345315  0.30754533     0.78140
Cd243      Cd  0.25462344  0.78007370  0.30568960     1.37470
O244        O  0.16355372  0.75912990  0.33647462    -0.56850
O245        O  0.31385377  0.75907209  0.33550143    -0.55660
C246        C  0.27905535  0.81300171  0.25558393     0.78100
O247        O  0.32479117  0.75988376  0.27883988    -0.58030
O248        O  0.17056439  0.75915722  0.27997091    -0.56480
O249        O  0.32062573  0.80184767  0.34011355    -0.56470
O250        O  0.23562905  0.81180648  0.27834577    -0.55640
C251        C  0.97250733  0.63603103  0.20212564     0.04090
C252        C  0.96954190  0.64752736  0.23322478    -0.12060
C253        C  0.93904788  0.66435716  0.23502724     0.01590
C254        C  0.90683313  0.66811248  0.20783074    -0.10580
C255        C  0.90975814  0.65904609  0.37919929     0.04090
C256        C  0.93719909  0.64150766  0.37497135    -0.10000
H257        H  0.99363601  0.64460051  0.25500885     0.09680
H258        H  0.88208818  0.68075641  0.20972710     0.07210
H259        H  0.93802865  0.63438675  0.34971769     0.07060
O260        O  0.97712489  0.67985958  0.33675147    -0.56850
C261        C  0.08227547  0.73906611  0.30945448     0.75780
O262        O  0.42014319  0.69692479  0.26064684    -0.58010
C263        C  0.42741325  0.67721382  0.35368441     0.75750
C264        C  0.38327685  0.74000124  0.30827014     0.78140
Cd265      Cd  0.96745547  0.71233908  0.30905081     1.37460
O266        O  0.05179323  0.73233620  0.33784189    -0.56850
O267        O  0.39786984  0.73345078  0.33687922    -0.55660
C268        C  0.95168442  0.68127568  0.25963787     0.78100
O269        O  0.40813969  0.73433481  0.28019599    -0.58030
O270        O  0.05988423  0.73338557  0.28139451    -0.56480
O271        O  0.39879649  0.69210079  0.35369385    -0.56470
O272        O  0.99278546  0.68212863  0.27940926    -0.55640
O273        O  0.53128904  0.31144900  0.34736935    -0.56850
C274        C  0.43740248  0.26037219  0.30715716     0.75780
O275        O  0.07980850  0.30061303  0.25274481    -0.58010
C276        C  0.08583225  0.32076650  0.35117472     0.75750
C277        C  0.13345751  0.25899943  0.30934268     0.78140
Cd278      Cd  0.55329180  0.28716799  0.30559220     1.37470
O279        O  0.45981009  0.26608204  0.33527146    -0.56850
O280        O  0.10867143  0.26396703  0.33796448    -0.55660
C281        C  0.56203782  0.31702032  0.25137846     0.78100
O282        O  0.11861494  0.26625787  0.28146111    -0.58030
O283        O  0.46815536  0.26697872  0.27889960    -0.56480
O284        O  0.12445857  0.31446417  0.33090159    -0.56470
O285        O  0.52992626  0.31808749  0.27932170    -0.55640
C286        C  0.50698153  0.35582251  0.19655518     0.04090
C287        C  0.53759156  0.34882150  0.22322472    -0.12060
C288        C  0.55598366  0.32944442  0.22070993     0.01590
C289        C  0.54864710  0.31792816  0.19096173    -0.10580
C290        C  0.59608794  0.33704198  0.37498748     0.04090
C291        C  0.57176160  0.35519838  0.37162639    -0.10000
H292        H  0.54660462  0.35790161  0.24624690     0.09680
H293        H  0.56444436  0.30319683  0.18931656     0.07210
H294        H  0.57945250  0.36389271  0.34686997     0.07060
O295        O  0.34774722  0.23947412  0.33483841    -0.56850
C296        C  0.22400325  0.18423019  0.34881759     0.75780
O297        O  0.20178889  0.24073530  0.27927793    -0.58010
C298        C  0.37884219  0.24667705  0.30690658     0.75750
C299        C  0.24606797  0.18879873  0.25449368     0.78140
Cd300      Cd  0.26502354  0.21967733  0.30483934     1.37460
O301        O  0.27656623  0.18787831  0.33456343    -0.56850
O302        O  0.28442640  0.18789089  0.27552755    -0.55660
C303        C  0.17796276  0.24567561  0.30820084     0.78100
O304        O  0.22540733  0.20559977  0.25372811    -0.58030
O305        O  0.19392078  0.19847144  0.34585866    -0.56480
O306        O  0.35723795  0.24143365  0.27842624    -0.56470
O307        O  0.19480279  0.23878826  0.33585511    -0.55640
C308        C  0.22108034  0.13448071  0.40046117     0.04090
C309        C  0.25056077  0.15323360  0.22881032    -0.12060
C310        C  0.22546721  0.17135762  0.23180870     0.01590
C311        C  0.18178419  0.17397277  0.21069449    -0.10580
C312        C  0.20030827  0.16508020  0.36998353     0.04090
C313        C  0.23162584  0.14862469  0.37132258    -0.10000
H314        H  0.28309606  0.15084832  0.24626618     0.09680
H315        H  0.16159564  0.18773896  0.21356659     0.07210
H316        H  0.26625539  0.14764311  0.35082820     0.07060
C317        C  0.49029810  0.37715050  0.19764733     0.04090
C318        C  0.48073812  0.38700815  0.22969393    -0.12060
C319        C  0.46844559  0.40753762  0.23124697     0.01590
C320        C  0.46153462  0.41743587  0.19877735    -0.10580
C321        C  0.47762466  0.40865829  0.36610390     0.04090
C322        C  0.49800435  0.38948533  0.36673842    -0.10000
H323        H  0.48414830  0.37866455  0.25353900     0.09680
H324        H  0.44724312  0.43233027  0.19895294     0.07210
H325        H  0.50661707  0.38186094  0.34252164     0.07060
C326        C  0.52081109  0.54371881  0.30047635     0.04090
C327        C  0.52369906  0.55483358  0.26856922    -0.12060
C328        C  0.53389616  0.57701255  0.26674840     0.01590
C329        C  0.54117099  0.58784346  0.29882976    -0.10580
C330        C  0.53558616  0.57686037  0.33192802     0.04090
C331        C  0.52748933  0.55468764  0.33164630    -0.10000
H332        H  0.51581889  0.54584376  0.24528411     0.09680
H333        H  0.55118056  0.60488770  0.29803360     0.07210
H334        H  0.52435853  0.54563191  0.35579334     0.07060
C335        C  0.48525552  0.45252097  0.29682855     0.04090
C336        C  0.47709706  0.44128169  0.26605542    -0.12060
C337        C  0.46824387  0.41902307  0.26610242     0.01590
C338        C  0.46449864  0.40837512  0.29950479    -0.10580
C339        C  0.47351744  0.41954901  0.33114775     0.04090
C340        C  0.48389187  0.44170707  0.32878267    -0.10000
H341        H  0.47928852  0.45034352  0.24206603     0.09680
H342        H  0.45415173  0.39137440  0.30123619     0.07210
H343        H  0.49299678  0.45094264  0.35168040     0.07060
C344        C  0.50102702  0.61771717  0.20089008     0.04090
C345        C  0.51029742  0.60743625  0.23202714    -0.12060
C346        C  0.53082360  0.58835043  0.23201792     0.01590
C347        C  0.54297851  0.57905243  0.39897801    -0.10580
C348        C  0.53120553  0.58795781  0.36674230     0.04090
C349        C  0.50854311  0.60667296  0.36833522    -0.10000
H350        H  0.49880367  0.61357343  0.25693764     0.09680
H351        H  0.56289772  0.56526108  0.39850081     0.07210
H352        H  0.49976103  0.61368497  0.34437174     0.07060
C353        C  0.05499070  0.51050053  0.28457128    -0.04820
C354        C  0.51067736  0.52029996  0.30070563     0.01110
C355        C  0.45692531  0.50731138  0.31510955    -0.07460
C356        C  0.45029257  0.48525363  0.31274517    -0.04840
C357        C  0.49498165  0.47594423  0.29618018     0.01100
C358        C  0.04798692  0.48845808  0.28186091    -0.07370
C359        C  0.09799806  0.47912143  0.26412483     0.63010
H360        H  0.09533003  0.52075532  0.27333951     0.13700
H361        H  0.41000067  0.47497736  0.32399158     0.13710
C362        C  0.40627137  0.51660474  0.33218056     0.63240
F363        F  0.15618690  0.49611079  0.46114436    -0.21920
F364        F  0.08067551  0.46952406  0.23377233    -0.19250
F365        F  0.11281379  0.46436420  0.28629645    -0.18930
F366        F  0.39250123  0.53148730  0.30981990    -0.18980
F367        F  0.42209252  0.52602548  0.36293546    -0.19310
F368        F  0.35555280  0.50134069  0.13853260    -0.21980
C369        C  0.21081171  0.01103024  0.29114724    -0.04820
C370        C  0.26685625  0.02122129  0.29971768     0.01110
C371        C  0.30922616  0.00919713  0.30769215    -0.07460
C372        C  0.29345707  0.98707556  0.30717674    -0.04840
C373        C  0.23734108  0.97689107  0.29872917     0.01100
C374        C  0.19509913  0.98891283  0.29054903    -0.07370
C375        C  0.13349082  0.97843884  0.28196026     0.63010
H376        H  0.17936822  0.02063670  0.28499660     0.13700
H377        H  0.32484902  0.97746052  0.31338371     0.13710
C378        C  0.37102586  0.01966252  0.31595365     0.63240
F379        F  0.09785910  0.99303724  0.27787166    -0.21920
F380        F  0.10653277  0.96432924  0.30867295    -0.19250
F381        F  0.13716087  0.96776433  0.25114658    -0.18930
F382        F  0.36791216  0.03029204  0.34683928    -0.18980
F383        F  0.39751572  0.03380716  0.28918704    -0.19310
F384        F  0.40678020  0.00506103  0.31967576    -0.21940
C385        C  0.25006755  0.11571294  0.40023007     0.04090
C386        C  0.26481602  0.10700063  0.56739894    -0.12060
C387        C  0.28811594  0.08844939  0.56573588     0.01590
C388        C  0.30026984  0.07950954  0.59788488    -0.10580
C389        C  0.28875535  0.08849790  0.43106814     0.04090
C390        C  0.26479740  0.10693815  0.43119859    -0.10000
H391        H  0.25579468  0.11414800  0.54352381     0.09680
H392        H  0.32016333  0.06569698  0.59720393     0.07210
H393        H  0.25564160  0.11410352  0.45573259     0.07060
C394        C  0.21821196  0.95319339  0.50033353     0.04090
C395        C  0.21616754  0.94226439  0.46905077    -0.12060
C396        C  0.20460617  0.92009303  0.46900553     0.01590
C397        C  0.19560762  0.90908743  0.50225226    -0.10580
C398        C  0.20172802  0.91993567  0.53450668     0.04090
C399        C  0.21225506  0.94212728  0.53250790    -0.10000
H400        H  0.22662992  0.95132014  0.44464259     0.09680
H401        H  0.18455858  0.89205414  0.50286854     0.07210
H402        H  0.21874151  0.95119085  0.55581657     0.07060
C403        C  0.28072170  0.04431153  0.49970591     0.04090
C404        C  0.28529505  0.05535327  0.46761492    -0.12060
C405        C  0.29391523  0.07750332  0.46573001     0.01590
C406        C  0.29989602  0.08841881  0.49781858    -0.10580
C407        C  0.29286992  0.07743603  0.53100075     0.04090
C408        C  0.28289061  0.05526251  0.53097134    -0.10000
H409        H  0.27878318  0.04628670  0.44429560     0.09680
H410        H  0.30908889  0.10547000  0.49699800     0.07210
H411        H  0.27343886  0.04620462  0.55539370     0.07060
C412        C  0.23682603  0.87980422  0.60054656     0.04090
C413        C  0.23200564  0.89030410  0.43283383    -0.12060
C414        C  0.20963432  0.90904570  0.43425277     0.01590
C415        C  0.19489421  0.91800034  0.60253120    -0.10580
C416        C  0.20467492  0.90871834  0.56949312     0.04090
C417        C  0.22415100  0.88942396  0.56960576    -0.10000
H418        H  0.23970535  0.88314938  0.45696885     0.09680
H419        H  0.17721888  0.93228589  0.60352139     0.07210
H420        H  0.23201769  0.88254305  0.54490870     0.07060
C421        C  0.26230491  0.85995445  0.59959305     0.04090
C422        C  0.30488576  0.85597129  0.42735337    -0.12060
C423        C  0.33372965  0.83874981  0.42337665     0.01590
C424        C  0.32882207  0.82806331  0.59911915    -0.10580
C425        C  0.31065695  0.83433402  0.56830000     0.04090
C426        C  0.28161612  0.85143766  0.56778602    -0.10000
H427        H  0.30077911  0.86245563  0.45299114     0.09680
H428        H  0.35418096  0.81558842  0.59863173     0.07210
H429        H  0.27180396  0.85662113  0.54266583     0.07060
O430        O  0.25501594  0.81512706  0.52647018    -0.56850
C431        C  0.16479295  0.75942051  0.49516734     0.75780
O432        O  0.34602529  0.80603982  0.44846176    -0.58010
C433        C  0.30082701  0.81788516  0.54281606     0.75750
C434        C  0.35994667  0.75768493  0.49791334     0.78140
Cd435      Cd  0.28049260  0.78597335  0.49494949     1.37470
O436        O  0.18708414  0.76530657  0.52320125    -0.56850
O437        O  0.33578599  0.76414465  0.52554827    -0.55660
C438        C  0.31756162  0.82098262  0.44857257     0.78100
O439        O  0.34708113  0.76426806  0.46886691    -0.58030
O440        O  0.19553799  0.76595767  0.46677200    -0.56480
O441        O  0.33380492  0.80435760  0.53925730    -0.56470
O442        O  0.26949166  0.81846305  0.46789714    -0.55640
C443        C  0.96839436  0.63531611  0.40214008     0.04090
C444        C  0.97665125  0.64906003  0.43043814    -0.12060
C445        C  0.94489479  0.66548849  0.43394719     0.01590
C446        C  0.90017675  0.66617242  0.41245452    -0.10580
C447        C  0.94607694  0.66703965  0.57270488     0.04090
C448        C  0.97275178  0.64923659  0.57056817    -0.10000
H449        H  0.00945845  0.64776918  0.44834768     0.09680
H450        H  0.87438384  0.67846191  0.41599260     0.07210
H451        H  0.99119142  0.64546813  0.54519694     0.07060
O452        O  0.00710867  0.68598110  0.52536853    -0.56850
C453        C  0.10625547  0.74555841  0.49575669     0.75780
O454        O  0.42610912  0.69672876  0.45887117    -0.58010
C455        C  0.44206435  0.68068469  0.55033463     0.75750
C456        C  0.40106547  0.74322023  0.49948193     0.78140
Cd457      Cd  0.99196172  0.71803788  0.49766686     1.37460
O458        O  0.07606773  0.73907828  0.52430249    -0.56850
O459        O  0.41427467  0.73673133  0.52849892    -0.55660
C460        C  0.96523405  0.68433876  0.45353830     0.78100
O461        O  0.42491298  0.73666742  0.47183643    -0.58030
O462        O  0.08368893  0.73940868  0.46789745    -0.56480
O463        O  0.41522373  0.69604760  0.55006095    -0.56470
O464        O  0.01204015  0.68663777  0.46890406    -0.55640
O465        O  0.45744206  0.30781214  0.52531403    -0.56850
C466        C  0.35350885  0.24838698  0.49825857     0.75780
O467        O  0.04506104  0.29423781  0.45296438    -0.58010
C468        C  0.99789422  0.30726418  0.54413615     0.75750
C469        C  0.05415041  0.24686362  0.49810304     0.78140
Cd470      Cd  0.46970657  0.27477145  0.49707965     1.37470
O471        O  0.37591903  0.25463403  0.52609392    -0.56850
O472        O  0.02988012  0.25304527  0.52593125    -0.55660
C473        C  0.51314204  0.30912937  0.45048642     0.78100
O474        O  0.04017196  0.25348747  0.46938839    -0.58030
O475        O  0.38402752  0.25474261  0.46974023    -0.56480
O476        O  0.01682266  0.29013419  0.54549373    -0.56470
O477        O  0.46352426  0.30782478  0.46796459    -0.55640
C478        C  0.53317524  0.36051417  0.39915588     0.04090
C479        C  0.51467033  0.34573269  0.42725594    -0.12060
C480        C  0.54164870  0.32817529  0.42980250     0.01590
C481        C  0.59181862  0.32725889  0.40756062    -0.10580
C482        C  0.52413272  0.32485483  0.56512534     0.04090
C483        C  0.50102313  0.34339192  0.56857185    -0.10000
H484        H  0.47797038  0.34735775  0.44593115     0.09680
H485        H  0.61325739  0.31384102  0.40996045     0.07210
H486        H  0.46945972  0.34654229  0.55100196     0.07060
O487        O  0.26518604  0.22772993  0.52768276    -0.56850
C488        C  0.16128672  0.17260395  0.55141082     0.75780
O489        O  0.12194691  0.22691360  0.47130849    -0.58010
C490        C  0.29523722  0.23423467  0.49910706     0.75750
C491        C  0.16194061  0.17257814  0.45441966     0.78140
Cd492      Cd  0.18118718  0.20580895  0.50111370     1.37460
O493        O  0.20322537  0.17483936  0.52753327    -0.56850
O494        O  0.20936135  0.17732657  0.46904269    -0.55660
C495        C  0.09674728  0.23276825  0.49913418     0.78100
O496        O  0.12417011  0.18429865  0.45974268    -0.58030
O497        O  0.12896904  0.18644407  0.55272100    -0.56480
O498        O  0.27283873  0.22774977  0.47137262    -0.56470
O499        O  0.11014681  0.22598605  0.52789800    -0.55640
C500        C  0.22164350  0.13469451  0.60148745     0.04090
C501        C  0.18623188  0.13974103  0.42991888    -0.12060
C502        C  0.15714424  0.15685687  0.42754132     0.01590
C503        C  0.15395241  0.16577528  0.39511472    -0.10580
C504        C  0.15825475  0.15714584  0.57976876     0.04090
C505        C  0.18755870  0.14006977  0.57518070    -0.10000
H506        H  0.18452129  0.13187139  0.45507346     0.09680
H507        H  0.12981091  0.17853491  0.39364446     0.07210
H508        H  0.18630124  0.13225600  0.55048675     0.07060
C509        C  0.50928322  0.38033397  0.39827153     0.04090
C510        C  0.50084128  0.39064518  0.42973749    -0.12060
C511        C  0.47910936  0.40944097  0.43112479     0.01590
C512        C  0.46661387  0.41812295  0.39891160    -0.10580
C513        C  0.47736154  0.40878524  0.56584419     0.04090
C514        C  0.49458433  0.38913076  0.56624485    -0.10000
H515        H  0.51434897  0.38432346  0.45321027     0.09680
H516        H  0.44847167  0.43230531  0.39933826     0.07210
H517        H  0.50757425  0.38247031  0.54180583     0.07060
C518        C  0.52286970  0.54430558  0.50128361     0.04090
C519        C  0.52492122  0.55497426  0.46915958    -0.12060
C520        C  0.53309055  0.57702767  0.46686403     0.01590
C521        C  0.53964940  0.58829023  0.49863368    -0.10580
C522        C  0.53560379  0.57769227  0.53206849     0.04090
C523        C  0.52868078  0.55553048  0.53219663    -0.10000
H524        H  0.51776467  0.54571761  0.44607473     0.09680
H525        H  0.54793647  0.60532099  0.49705939     0.07210
H526        H  0.52573624  0.54657094  0.55640925     0.07060
C527        C  0.49140647  0.45359011  0.49728552     0.04090
C528        C  0.48493127  0.44275377  0.46603974    -0.12060
C529        C  0.47597362  0.42060858  0.46578047     0.01590
C530        C  0.46968951  0.40953397  0.49882885    -0.10580
C531        C  0.47679873  0.42028085  0.53096806     0.04090
C532        C  0.48793254  0.44245224  0.52918098    -0.10000
H533        H  0.48865064  0.45185757  0.44187914     0.09680
H534        H  0.45910168  0.39248681  0.49947700     0.07210
H535        H  0.49562283  0.45143415  0.55248231     0.07060
C536        C  0.49445132  0.61578511  0.40039719     0.04090
C537        C  0.50334341  0.60574620  0.43168586    -0.12060
C538        C  0.52856950  0.58772061  0.43192238     0.01590
C539        C  0.54271541  0.57979388  0.59918225    -0.10580
C540        C  0.53236110  0.58900619  0.56687537     0.04090
C541        C  0.51300673  0.60836919  0.56846562    -0.10000
H542        H  0.48740692  0.61135783  0.45638651     0.09680
H543        H  0.56127690  0.56571746  0.59881657     0.07210
H544        H  0.50602672  0.61573831  0.54446368     0.07060
C545        C  0.05968269  0.51178366  0.48648719    -0.04820
C546        C  0.51424818  0.52101616  0.50198317     0.01110
C547        C  0.46006977  0.50783623  0.51510592    -0.07460
C548        C  0.45446455  0.48586120  0.51265619    -0.04840
C549        C  0.50068229  0.47689289  0.49723200     0.01100
C550        C  0.05370177  0.48980142  0.48396653    -0.07370
C551        C  0.10559164  0.48065870  0.46828296     0.63010
H552        H  0.10056737  0.52219794  0.47644869     0.13700
H553        H  0.41374068  0.47539059  0.52279140     0.13710
C554        C  0.40801432  0.51687346  0.53084143     0.63240
F555        F  0.15007745  0.49441969  0.65882226    -0.21920
F556        F  0.09199898  0.47107540  0.43729370    -0.19250
F557        F  0.11825047  0.46593641  0.49137276    -0.18930
F558        F  0.39447778  0.53130551  0.50754568    -0.18980
F559        F  0.42190188  0.52677361  0.56153474    -0.19310
F560        F  0.35564738  0.50128307  0.34015801    -0.21980
C561        C  0.21037138  0.01121437  0.49055262    -0.04820
C562        C  0.26591058  0.02093099  0.50059094     0.01110
C563        C  0.30611290  0.00837081  0.51010927    -0.07460
C564        C  0.28880954  0.98626921  0.50945922    -0.04840
C565        C  0.23326015  0.97656302  0.49942696     0.01100
C566        C  0.19311337  0.98912335  0.48984280    -0.07370
C567        C  0.13198512  0.97927530  0.47964773     0.63010
H568        H  0.18054212  0.02118472  0.48325601     0.13700
H569        H  0.31860518  0.97628958  0.51676925     0.13710
C570        C  0.36734896  0.01822401  0.52011471     0.63240
F571        F  0.09804516  0.99432617  0.47478574    -0.21920
F572        F  0.10236599  0.96514751  0.50568282    -0.19250
F573        F  0.13701215  0.96878017  0.44874437    -0.18930
F574        F  0.36260046  0.02875592  0.55099740    -0.18980
F575        F  0.39677221  0.03232044  0.49398337    -0.19310
F576        F  0.40131569  0.00317074  0.52489740    -0.21940
C577        C  0.25053091  0.11588581  0.59954811     0.04090
C578        C  0.27091204  0.10902579  0.76758426    -0.12060
C579        C  0.28803541  0.08926439  0.76590743     0.01590
C580        C  0.29808564  0.07982560  0.79810722    -0.10580
C581        C  0.28604827  0.08811697  0.63091248     0.04090
C582        C  0.26046210  0.10606179  0.63078489    -0.10000
H583        H  0.26440635  0.11670448  0.74367634     0.09680
H584        H  0.31488408  0.06537067  0.79742803     0.07210
H585        H  0.24493979  0.11181479  0.65549794     0.07060
C586        C  0.21910236  0.95340297  0.70041981     0.04090
C587        C  0.21636773  0.94247731  0.66912195    -0.12060
C588        C  0.20640755  0.92030247  0.66907166     0.01590
C589        C  0.20007629  0.90933488  0.70227954    -0.10580
C590        C  0.20608189  0.92027309  0.73438087     0.04090
C591        C  0.21488718  0.94240079  0.73249281    -0.10000
H592        H  0.22473668  0.95156219  0.64472136     0.09680
H593        H  0.19108998  0.89226851  0.70315590     0.07210
H594        H  0.22134874  0.95145522  0.75583703     0.07060
C595        C  0.27659394  0.04446742  0.70035245     0.04090
C596        C  0.28121786  0.05523941  0.66808412    -0.12060
C597        C  0.29032490  0.07733117  0.66582064     0.01590
C598        C  0.29667652  0.08854646  0.69766345    -0.10580
C599        C  0.29004908  0.07786951  0.73116510     0.04090
C600        C  0.27936462  0.05562973  0.73144392    -0.10000
H601        H  0.27474247  0.04605473  0.64486960     0.09680
H602        H  0.30622909  0.10559161  0.69613767     0.07210
H603        H  0.27051946  0.04662467  0.75590310     0.07060
C604        C  0.24472806  0.88108385  0.80062064     0.04090
C605        C  0.23027007  0.89027677  0.63227956    -0.12060
C606        C  0.20856915  0.90912701  0.63430923     0.01590
C607        C  0.19598051  0.91789718  0.80219413    -0.10580
C608        C  0.20992876  0.90922623  0.76920760     0.04090
C609        C  0.23448605  0.89097784  0.76934192    -0.10000
H610        H  0.24548859  0.88442729  0.65548596     0.09680
H611        H  0.17601959  0.93169263  0.80292451     0.07210
H612        H  0.24919496  0.88535310  0.74448578     0.07060
C613        C  0.27308964  0.86186547  0.79948707     0.04090
C614        C  0.26414938  0.84792741  0.63050052    -0.12060
C615        C  0.29513466  0.83117659  0.62938309     0.01590
C616        C  0.34377713  0.83123702  0.79510613    -0.10580
C617        C  0.31250302  0.83447121  0.76726909     0.04090
C618        C  0.28003168  0.85075790  0.76828351    -0.10000
H619        H  0.23918237  0.85052321  0.65465075     0.09680
H620        H  0.36948272  0.81884898  0.79356703     0.07210
H621        H  0.25639014  0.85307319  0.74600083     0.07060
O622        O  0.24292933  0.81003334  0.73915790    -0.56850
C623        C  0.15168466  0.75294129  0.70904566     0.75780
O624        O  0.30998485  0.79854455  0.65266148    -0.58010
C625        C  0.29579919  0.81597009  0.74648194     0.75750
C626        C  0.35383780  0.75579109  0.70542282     0.78140
Cd627      Cd  0.26488632  0.78099442  0.70526000     1.37470
O628        O  0.17478395  0.75932866  0.73668277    -0.56850
O629        O  0.32791227  0.76070180  0.73377109    -0.55660
C630        C  0.28225445  0.81369466  0.65511994     0.78100
O631        O  0.33759809  0.76209849  0.67713597    -0.58030
O632        O  0.18119644  0.75924888  0.68022457    -0.56480
O633        O  0.33190592  0.80401578  0.73832604    -0.56470
O634        O  0.24070808  0.81227410  0.67915058    -0.55640
C635        C  0.98041795  0.63822437  0.60150342     0.04090
C636        C  0.97186936  0.64872788  0.63317785    -0.12060
C637        C  0.94499312  0.66642013  0.63376055     0.01590
C638        C  0.92077145  0.67211042  0.60447320    -0.10580
C639        C  0.91474305  0.65982719  0.77844120     0.04090
C640        C  0.94232091  0.64233828  0.77454827    -0.10000
H641        H  0.98934996  0.64459086  0.65681693     0.09680
H642        H  0.89830451  0.68537017  0.60563862     0.07210
H643        H  0.94503096  0.63560900  0.74904333     0.07060
O644        O  0.98382745  0.68037020  0.73646084    -0.56850
C645        C  0.09307147  0.73914487  0.70990753     0.75780
O646        O  0.44662520  0.70208031  0.65557375    -0.58010
C647        C  0.45160746  0.68275397  0.74974835     0.75750
C648        C  0.40059931  0.74334862  0.70524771     0.78140
Cd649      Cd  0.97679983  0.71327398  0.70944238     1.37460
O650        O  0.06234118  0.73259460  0.73830871    -0.56850
O651        O  0.41732304  0.73709118  0.73342987    -0.55660
C652        C  0.95707117  0.68265942  0.65950825     0.78100
O653        O  0.42604682  0.73837216  0.67682140    -0.58030
O654        O  0.07054439  0.73346710  0.68187706    -0.56480
O655        O  0.42261998  0.69750317  0.74912573    -0.56470
O656        O  0.99911686  0.68326783  0.67853937    -0.55640
O657        O  0.50229098  0.31187906  0.72712825    -0.56850
C658        C  0.41413795  0.25462517  0.69921938     0.75780
O659        O  0.09165532  0.30173806  0.64424381    -0.58010
C660        C  0.06219339  0.31730811  0.74138013     0.75750
C661        C  0.11734619  0.25664383  0.69904616     0.78140
Cd662      Cd  0.52840240  0.28200955  0.69691377     1.37470
O663        O  0.43763538  0.26049484  0.72686909    -0.56850
O664        O  0.09348718  0.26301527  0.72685033    -0.55660
C665        C  0.55977890  0.31538372  0.64669901     0.78100
O666        O  0.10344825  0.26299431  0.67014565    -0.58030
O667        O  0.44344611  0.26127496  0.67049311    -0.56480
O668        O  0.09783553  0.30492156  0.73500122    -0.56470
O669        O  0.51773847  0.31476948  0.67017014    -0.55640
C670        C  0.51704254  0.35726021  0.59595888     0.04090
C671        C  0.54773271  0.34990740  0.62229605    -0.12060
C672        C  0.56846639  0.33095043  0.61804221     0.01590
C673        C  0.56777876  0.32170590  0.58593004    -0.10580
C674        C  0.56322065  0.33231092  0.76585395     0.04090
C675        C  0.53080464  0.34854748  0.76846157    -0.10000
H676        H  0.55304103  0.35787379  0.64670387     0.09680
H677        H  0.58736917  0.30783850  0.58235204     0.07210
H678        H  0.50090222  0.35013191  0.74890220     0.07060
O679        O  0.32582854  0.23435185  0.72904724    -0.56850
C680        C  0.20045186  0.18095703  0.75059782     0.75780
O681        O  0.18246345  0.23602409  0.67229516    -0.58010
C682        C  0.35553279  0.24091300  0.70036846     0.75750
C683        C  0.21731937  0.18287205  0.65496622     0.78140
Cd684      Cd  0.23990910  0.21476835  0.70190137     1.37460
O685        O  0.24674451  0.18207272  0.73005424    -0.56850
O686        O  0.26247102  0.18445710  0.67173872    -0.55660
C687        C  0.15930037  0.24253692  0.70017542     0.78100
O688        O  0.18921700  0.19788716  0.65671403    -0.58030
O689        O  0.17377056  0.19632544  0.74981929    -0.56480
O690        O  0.33212173  0.23521236  0.67262059    -0.56470
O691        O  0.17396546  0.23633657  0.72898114    -0.55640
C692        C  0.23824171  0.13904449  0.80158834     0.04090
C693        C  0.23092375  0.14861385  0.62932821    -0.12060
C694        C  0.19895176  0.16487359  0.63335437     0.01590
C695        C  0.15409838  0.16589234  0.61219854    -0.10580
C696        C  0.18584896  0.16469225  0.77829798     0.04090
C697        C  0.20825374  0.14605994  0.77459311    -0.10000
H698        H  0.26438834  0.14741759  0.64684627     0.09680
H699        H  0.12871341  0.17827640  0.61599392     0.07210
H700        H  0.20567958  0.13839981  0.74981317     0.07060
C701        C  0.49864903  0.37828216  0.59762846     0.04090
C702        C  0.48872783  0.38806421  0.62970765    -0.12060
C703        C  0.47362331  0.40820089  0.63120874     0.01590
C704        C  0.46546114  0.41786240  0.59877356    -0.10580
C705        C  0.47506850  0.40921062  0.76630297     0.04090
C706        C  0.49946208  0.39099404  0.76691155    -0.10000
H707        H  0.49401892  0.38006708  0.65357366     0.09680
H708        H  0.44964883  0.43248759  0.59899427     0.07210
H709        H  0.51612593  0.38531014  0.74242854     0.07060
C710        C  0.52107497  0.54409039  0.70054307     0.04090
C711        C  0.52313439  0.55513961  0.66868887    -0.12060
C712        C  0.53201766  0.57728440  0.66692867     0.01590
C713        C  0.53860886  0.58813784  0.69902641    -0.10580
C714        C  0.53421739  0.57714168  0.73208634     0.04090
C715        C  0.52749725  0.55503119  0.73170526    -0.10000
H716        H  0.51554798  0.54610659  0.64542060     0.09680
H717        H  0.54712405  0.60519071  0.69822209     0.07210
H718        H  0.52498327  0.54595671  0.75577889     0.07060
C719        C  0.48630431  0.45307629  0.69686768     0.04090
C720        C  0.48024005  0.44187154  0.66591497    -0.12060
C721        C  0.47161236  0.41963093  0.66599969     0.01590
C722        C  0.46617789  0.40896318  0.69944139    -0.10580
C723        C  0.47266765  0.42014479  0.73126515     0.04090
C724        C  0.48260614  0.44225362  0.72903067    -0.10000
H725        H  0.48386816  0.45090640  0.64175712     0.09680
H726        H  0.45669373  0.39193043  0.70104175     0.07210
H727        H  0.48968807  0.45139260  0.75224983     0.07060
C728        C  0.50042256  0.61783669  0.60052577     0.04090
C729        C  0.50709281  0.60733125  0.63189434    -0.12060
C730        C  0.52904372  0.58853313  0.63214501     0.01590
C731        C  0.54279119  0.57930392  0.79905880    -0.10580
C732        C  0.53016543  0.58814185  0.76698999     0.04090
C733        C  0.50701951  0.60672414  0.76879917    -0.10000
H734        H  0.49224351  0.61331637  0.65651923     0.09680
H735        H  0.56237323  0.56543589  0.79853643     0.07210
H736        H  0.49376557  0.61266725  0.74517169     0.07060
C737        C  0.05603376  0.51109971  0.68519499    -0.04820
C738        C  0.51139091  0.52073005  0.70082473     0.01110
C739        C  0.45744614  0.50773143  0.71484218    -0.07460
C740        C  0.45089322  0.48570983  0.71233557    -0.04840
C741        C  0.49605045  0.47645911  0.69622476     0.01100
C742        C  0.04828541  0.48902850  0.68277830    -0.07370
C743        C  0.09870243  0.47937767  0.66634235     0.63010
H744        H  0.09708184  0.52115326  0.67448323     0.13700
H745        H  0.41035127  0.47541091  0.72318456     0.13710
C746        C  0.40663316  0.51699129  0.73178589     0.63240
F747        F  0.14649475  0.49449845  0.85764402    -0.21920
F748        F  0.08341188  0.47004771  0.63542803    -0.19250
F749        F  0.11092751  0.46434169  0.68900272    -0.18930
F750        F  0.39300393  0.53188932  0.70940077    -0.18980
F751        F  0.42221409  0.52638752  0.76260544    -0.19310
F752        F  0.35785379  0.50130388  0.53852109    -0.21980
C753        C  0.20632869  0.01103683  0.69321044    -0.04820
C754        C  0.26271407  0.02111160  0.70144950     0.01110
C755        C  0.30508662  0.00894643  0.70877413    -0.07460
C756        C  0.28908319  0.98682721  0.70791546    -0.04840
C757        C  0.23271876  0.97675346  0.69965927     0.01100
C758        C  0.19038750  0.98891721  0.69222809    -0.07370
C759        C  0.12850234  0.97857736  0.68394299     0.63010
H760        H  0.17491645  0.02073828  0.68743188     0.13700
H761        H  0.32054009  0.97712903  0.71362648     0.13710
C762        C  0.36716885  0.01929573  0.71666279     0.63240
F763        F  0.09293614  0.99325819  0.68039749    -0.21920
F764        F  0.10190350  0.96435966  0.71058674    -0.19250
F765        F  0.13150316  0.96804802  0.65294504    -0.18930
F766        F  0.36465724  0.03006426  0.74744058    -0.18980
F767        F  0.39353914  0.03330520  0.68968588    -0.19310
F768        F  0.40264382  0.00459955  0.72035244    -0.21940
C769        C  0.26021241  0.11863643  0.79975521     0.04090
C770        C  0.26009100  0.10663117  0.96757488    -0.12060
C771        C  0.28410558  0.08834656  0.96596574     0.01590
C772        C  0.29786257  0.07984132  0.99802369    -0.10580
C773        C  0.28642052  0.08883835  0.83116348     0.04090
C774        C  0.26668785  0.10805926  0.83100673    -0.10000
H775        H  0.24576181  0.11268598  0.94412299     0.09680
H776        H  0.31727385  0.06592477  0.99724230     0.07210
H777        H  0.25331441  0.11444908  0.85560267     0.07060
C778        C  0.21673036  0.95338304  0.90008434     0.04090
C779        C  0.21447194  0.94240688  0.86887247    -0.12060
C780        C  0.20465280  0.92026638  0.86896483     0.01590
C781        C  0.19778794  0.90936590  0.90226781    -0.10580
C782        C  0.20381553  0.92037360  0.93435957     0.04090
C783        C  0.21243941  0.94248876  0.93226763    -0.10000
H784        H  0.22342704  0.95142394  0.84439874     0.09680
H785        H  0.18860004  0.89230522  0.90313651     0.07210
H786        H  0.21887432  0.95164600  0.95549529     0.07060
C787        C  0.27464544  0.04430941  0.89988070     0.04090
C788        C  0.27904729  0.05537540  0.86783902    -0.12060
C789        C  0.28874521  0.07753180  0.86600859     0.01590
C790        C  0.29504292  0.08834866  0.89819135    -0.10580
C791        C  0.28787596  0.07728393  0.93130741     0.04090
C792        C  0.27746733  0.05515212  0.93122456    -0.10000
H793        H  0.27231396  0.04633190  0.84452365     0.09680
H794        H  0.30484485  0.10541006  0.89759345     0.07210
H795        H  0.26865064  0.04608254  0.95565338     0.07060
C796        C  0.24281380  0.88105419  0.00030814     0.04090
C797        C  0.23290646  0.89081929  0.83253835    -0.12060
C798        C  0.20896830  0.90918206  0.83422534     0.01590
C799        C  0.19670845  0.91844471  0.00233180    -0.10580
C800        C  0.20835046  0.90944658  0.96926315     0.04090
C801        C  0.23137233  0.89087192  0.96924063    -0.10000
H802        H  0.24546432  0.88500245  0.85644099     0.09680
H803        H  0.17770015  0.93245146  0.00337597     0.07210
H804        H  0.24387701  0.88495035  0.94429210     0.07060
C805        C  0.26993084  0.86155253  0.99913818     0.04090
C806        C  0.28810670  0.85242595  0.83007096    -0.12060
C807        C  0.31853234  0.83560438  0.82735511     0.01590
C808        C  0.34008600  0.83078116  0.99583662    -0.10580
C809        C  0.31290663  0.83501165  0.96685000     0.04090
C810        C  0.28133304  0.85148789  0.96740731    -0.10000
H811        H  0.27141318  0.85606598  0.85588340     0.09680
H812        H  0.36627271  0.81854007  0.99442987     0.07210
H813        H  0.26178835  0.85462346  0.94393861     0.07060
O814        O  0.24727225  0.81264356  0.93332706    -0.56850
C815        C  0.15470232  0.75752036  0.90142110     0.75780
O816        O  0.33007988  0.80250337  0.85110836    -0.58010
C817        C  0.29798985  0.81719414  0.94439670     0.75750
C818        C  0.34915905  0.75537442  0.90350372     0.78140
Cd819      Cd  0.27034288  0.78372493  0.90017154     1.37470
O820        O  0.17717463  0.76344556  0.92942274    -0.56850
O821        O  0.32474561  0.76177209  0.93112296    -0.55660
C822        C  0.30218246  0.81761585  0.85203766     0.78100
O823        O  0.33669965  0.76202665  0.87441302    -0.58030
O824        O  0.18543743  0.76380734  0.87292315    -0.56480
O825        O  0.33271751  0.80446230  0.93831227    -0.56470
O826        O  0.25567544  0.81548445  0.87268318    -0.55640
C827        C  0.97147769  0.63581423  0.80239676     0.04090
C828        C  0.97702962  0.64912021  0.83142773    -0.12060
C829        C  0.94454201  0.66538403  0.83460051     0.01590
C830        C  0.90209476  0.66641251  0.81169131    -0.10580
C831        C  0.93138937  0.66408452  0.97479214     0.04090
C832        C  0.95877433  0.64649623  0.97149588    -0.10000
H833        H  0.00822903  0.64762991  0.85025940     0.09680
H834        H  0.87574383  0.67855704  0.81483056     0.07210
H835        H  0.97084512  0.64194032  0.94538583     0.07060
O836        O  0.99487428  0.68419515  0.92969470    -0.56850
C837        C  0.09595678  0.74387317  0.90189511     0.75780
O838        O  0.41556945  0.69515012  0.86189116    -0.58010
C839        C  0.42758821  0.67731735  0.95401199     0.75750
C840        C  0.38993400  0.74082693  0.90505443     0.78140
Cd841      Cd  0.98168166  0.71652028  0.90233062     1.37460
O842        O  0.06547308  0.73719343  0.93027596    -0.56850
O843        O  0.40271837  0.73414673  0.93405038    -0.55660
C844        C  0.96178277  0.68376873  0.85583191     0.78100
O845        O  0.41371369  0.73433140  0.87734447    -0.58030
O846        O  0.07351919  0.73810977  0.87385625    -0.56480
O847        O  0.39997766  0.69246451  0.95352530    -0.56470
O848        O  0.00543303  0.68553009  0.87385365    -0.55640
O849        O  0.53737319  0.31793501  0.93494634    -0.56850
C850        C  0.44469814  0.26245680  0.90187819     0.75780
O851        O  0.09950387  0.30385563  0.85059355    -0.58010
C852        C  0.08552656  0.32074268  0.94710760     0.75750
C853        C  0.13879710  0.25991657  0.90329394     0.78140
Cd854      Cd  0.56028035  0.28955175  0.90115959     1.37470
O855        O  0.46651470  0.26854701  0.92998531    -0.56850
O856        O  0.11279485  0.26464398  0.93174375    -0.55660
C857        C  0.58469558  0.32251720  0.85078203     0.78100
O858        O  0.12427216  0.26705752  0.87513586    -0.58030
O859        O  0.47572302  0.26897887  0.87362051    -0.56480
O860        O  0.12173053  0.30882345  0.93898323    -0.56470
O861        O  0.54312816  0.32139647  0.87473019    -0.55640
C862        C  0.53494549  0.36182829  0.79744077     0.04090
C863        C  0.56336906  0.35556155  0.82582583    -0.12060
C864        C  0.59226881  0.33838085  0.82258267     0.01590
C865        C  0.60310032  0.33058457  0.78997517    -0.10580
C866        C  0.59582284  0.33833508  0.97376057     0.04090
C867        C  0.57054664  0.35631087  0.97067453    -0.10000
H868        H  0.56068191  0.36270463  0.85099748     0.09680
H869        H  0.62870311  0.31820366  0.78743185     0.07210
H870        H  0.57702812  0.36492244  0.94586585     0.07060
O871        O  0.35537620  0.24172731  0.93010675    -0.56850
C872        C  0.23377872  0.18658115  0.94805714     0.75780
O873        O  0.20965029  0.24208381  0.87436993    -0.58010
C874        C  0.38639692  0.24845078  0.90192779     0.75750
C875        C  0.24608590  0.18864445  0.85432720     0.78140
Cd876      Cd  0.27199577  0.22112728  0.90171259     1.37460
O877        O  0.28343324  0.18874552  0.93033384    -0.56850
O878        O  0.28840209  0.18875123  0.87297290    -0.55660
C879        C  0.18417862  0.24691723  0.90287810     0.78100
O880        O  0.22387284  0.20511287  0.85414601    -0.58030
O881        O  0.20751299  0.20207382  0.94795937    -0.56480
O882        O  0.36484025  0.24246168  0.87372177    -0.56470
O883        O  0.20001175  0.24015786  0.93094355    -0.55640
C884        C  0.22248000  0.13555433  0.99884261     0.04090
C885        C  0.25042432  0.15283431  0.82961101    -0.12060
C886        C  0.22421883  0.17072694  0.83280119     0.01590
C887        C  0.18153453  0.17326970  0.81083916    -0.10580
C888        C  0.20842425  0.16736389  0.96892729     0.04090
C889        C  0.23837709  0.15055662  0.97096038    -0.10000
H890        H  0.28165777  0.15024980  0.84779361     0.09680
H891        H  0.16004595  0.18672455  0.81391627     0.07210
H892        H  0.27539759  0.14970855  0.95200513     0.07060
C893        C  0.50663473  0.38084678  0.79844243     0.04090
C894        C  0.49088541  0.38977933  0.83031346    -0.12060
C895        C  0.46936118  0.40869504  0.83161806     0.01590
C896        C  0.45954044  0.41783659  0.79909480    -0.10580
C897        C  0.47315782  0.40896732  0.96625105     0.04090
C898        C  0.49480649  0.39003055  0.96655176    -0.10000
H899        H  0.49759943  0.38238588  0.85438160     0.09680
H900        H  0.44027929  0.43176784  0.79914163     0.07210
H901        H  0.50378593  0.38259354  0.94220884     0.07060
C902        C  0.51864714  0.54402123  0.90116749     0.04090
C903        C  0.52222862  0.55491495  0.86906102    -0.12060
C904        C  0.53240162  0.57703133  0.86692422     0.01590
C905        C  0.53922171  0.58811007  0.89885600    -0.10580
C906        C  0.53372185  0.57732210  0.93216289     0.04090
C907        C  0.52522233  0.55513123  0.93217456    -0.10000
H908        H  0.51462245  0.54581961  0.84584400     0.09680
H909        H  0.54868419  0.60516056  0.89766557     0.07210
H910        H  0.52160858  0.54613259  0.95640869     0.07060
C911        C  0.47941205  0.45300156  0.89752350     0.04090
C912        C  0.47208527  0.44192383  0.86657123    -0.12060
C913        C  0.46478432  0.41977907  0.86644905     0.01590
C914        C  0.46053487  0.40893833  0.89967074    -0.10580
C915        C  0.46843930  0.41994808  0.93150916     0.04090
C916        C  0.47788863  0.44209675  0.92942684    -0.10000
H917        H  0.47458501  0.45094502  0.84245671     0.09680
H918        H  0.45118813  0.39190568  0.90088797     0.07210
H919        H  0.48655414  0.45126175  0.95244823     0.07060
C920        C  0.49645925  0.61662310  0.80069253     0.04090
C921        C  0.50551600  0.60642940  0.83189795    -0.12060
C922        C  0.52904099  0.58801876  0.83202082     0.01590
C923        C  0.54123161  0.57943911  0.99919787    -0.10580
C924        C  0.53014306  0.58855213  0.96694465     0.04090
C925        C  0.50922276  0.60762340  0.96860732    -0.10000
H926        H  0.49084038  0.61193013  0.85679364     0.09680
H927        H  0.56025292  0.56545302  0.99868353     0.07210
H928        H  0.50123608  0.61500500  0.94472821     0.07060
C929        C  0.05300554  0.51099047  0.88545589    -0.04820
C930        C  0.50772348  0.52065208  0.90172564     0.01110
C931        C  0.45327590  0.50796026  0.91573709    -0.07460
C932        C  0.44565403  0.48590091  0.91329172    -0.04840
C933        C  0.49004269  0.47636988  0.89697261     0.01100
C934        C  0.04543244  0.48896674  0.88297559    -0.07370
C935        C  0.09546336  0.47939184  0.86580987     0.63010
H936        H  0.09381865  0.52109704  0.87452240     0.13700
H937        H  0.40483601  0.47580534  0.92423839     0.13710
C938        C  0.40297749  0.51757900  0.93244580     0.63240
F939        F  0.15696909  0.49567789  0.06038144    -0.21920
F940        F  0.07898348  0.47000765  0.83513798    -0.19250
F941        F  0.10880554  0.46441370  0.88814871    -0.18930
F942        F  0.39029186  0.53257809  0.90988555    -0.18980
F943        F  0.41868062  0.52695147  0.96325882    -0.19310
F944        F  0.35600924  0.50165314  0.73963061    -0.21980
C945        C  0.20507293  0.01099212  0.89136162    -0.04820
C946        C  0.26087954  0.02099397  0.90059538     0.01110
C947        C  0.30258696  0.00879452  0.90900239    -0.07460
C948        C  0.28642699  0.98669867  0.90820436    -0.04840
C949        C  0.23056745  0.97669584  0.89907595     0.01100
C950        C  0.18896449  0.98889098  0.89048960    -0.07370
C951        C  0.12762009  0.97862423  0.88116407     0.63010
H952        H  0.17418558  0.02073401  0.88482662     0.13700
H953        H  0.31731220  0.97695574  0.91474173     0.13710
C954        C  0.36413854  0.01904396  0.91801911     0.63240
F955        F  0.09244106  0.99335643  0.87695322    -0.21920
F956        F  0.09971668  0.96436712  0.90745690    -0.19250
F957        F  0.13201501  0.96816602  0.85017672    -0.18930
F958        F  0.36026889  0.02946309  0.94907424    -0.18980
F959        F  0.39165004  0.03332602  0.89166779    -0.19310
F960        F  0.39940947  0.00430295  0.92190259    -0.21940
C961        C  0.74260377  0.11510594  0.00019277     0.04090
C962        C  0.77424563  0.10974713  0.16761889    -0.12060
C963        C  0.78973740  0.08972174  0.16600904     0.01590
C964        C  0.79885392  0.08015116  0.19831452    -0.10580
C965        C  0.78315163  0.08852331  0.03129398     0.04090
C966        C  0.75728655  0.10654803  0.03133421    -0.10000
H967        H  0.76895420  0.11775691  0.14376530     0.09680
H968        H  0.81523736  0.06563076  0.19764839     0.07210
H969        H  0.74682731  0.11360932  0.05582986     0.07060
C970        C  0.72394800  0.95347706  0.10012353     0.04090
C971        C  0.72192830  0.94257319  0.06876549    -0.12060
C972        C  0.71090871  0.92036875  0.06862247     0.01590
C973        C  0.70227333  0.90933763  0.10182748    -0.10580
C974        C  0.70843304  0.92012861  0.13409714     0.04090
C975        C  0.71865968  0.94234157  0.13220553    -0.10000
H976        H  0.73156701  0.95168906  0.04440393     0.09680
H977        H  0.69120360  0.89231266  0.10242503     0.07210
H978        H  0.72503523  0.95138205  0.15554327     0.07060
C979        C  0.77879651  0.04488701  0.10028769     0.04090
C980        C  0.78170962  0.05571587  0.06815893    -0.12060
C981        C  0.78954699  0.07782375  0.06598949     0.01590
C982        C  0.79663522  0.08900482  0.09776203    -0.10580
C983        C  0.79141261  0.07832004  0.13120628     0.04090
C984        C  0.78173086  0.05606403  0.13138749    -0.10000
H985        H  0.77479085  0.04651621  0.04500304     0.09680
H986        H  0.80571851  0.10603018  0.09617250     0.07210
H987        H  0.77359523  0.04702281  0.15579033     0.07060
C988        C  0.74319454  0.87995868  0.20014918     0.04090
C989        C  0.73632760  0.89021675  0.03235145    -0.12060
C990        C  0.71530553  0.90924910  0.03384397     0.01590
C991        C  0.70179723  0.91814212  0.20208328    -0.10580
C992        C  0.71125231  0.90881651  0.16902644     0.04090
C993        C  0.72988927  0.88934417  0.16921487    -0.10000
H994        H  0.74384273  0.88292757  0.05641095     0.09680
H995        H  0.68423776  0.93244635  0.20308835     0.07210
H996        H  0.73607466  0.88187428  0.14475023     0.07060
C997        C  0.76831615  0.86016249  0.19952128     0.04090
C998        C  0.80783297  0.85554534  0.02620193    -0.12060
C999        C  0.83554433  0.83807203  0.02228254     0.01590
C1000       C  0.83201581  0.82760314  0.20145154    -0.10580
C1001       C  0.82144347  0.83538035  0.16968406     0.04090
C1002       C  0.79454480  0.85299562  0.16843024    -0.10000
H1003       H  0.80621763  0.86262097  0.05147626     0.09680
H1004       H  0.85602442  0.81476352  0.20177720     0.07210
H1005       H  0.79180123  0.85980049  0.14301544     0.07060
O1006       O  0.76426962  0.81626931  0.12858192    -0.56850
C1007       C  0.67069675  0.76056834  0.09706371     0.75780
O1008       O  0.84900632  0.80575920  0.04812506    -0.58010
C1009       C  0.81136046  0.81923480  0.14376546     0.75750
C1010       C  0.86551555  0.75832836  0.10015029     0.78140
Cd1011     Cd  0.78700738  0.78686566  0.09680062     1.37470
O1012       O  0.69272609  0.76651404  0.12515830    -0.56850
O1013       O  0.84059576  0.76458083  0.12772025    -0.55660
C1014       C  0.82159474  0.82100395  0.04875338     0.78100
O1015       O  0.85368637  0.76519253  0.07105292    -0.58030
O1016       O  0.70184321  0.76696962  0.06875886    -0.56480
O1017       O  0.84461426  0.80585858  0.13930006    -0.56470
O1018       O  0.77589291  0.81932398  0.06994992    -0.55640
C1019       C  0.46998437  0.63629449  0.00263626     0.04090
C1020       C  0.48049224  0.65031781  0.03040626    -0.12060
C1021       C  0.45000024  0.66709307  0.03400095     0.01590
C1022       C  0.40438740  0.66789338  0.01322356    -0.10580
C1023       C  0.44832336  0.66758074  0.17187097     0.04090
C1024       C  0.47562903  0.64991317  0.17057979    -0.10000
H1025       H  0.51384225  0.64886844  0.04787086     0.09680
H1026       H  0.37945330  0.68041818  0.01688383     0.07210
H1027       H  0.49806459  0.64662492  0.14600482     0.07060
O1028       O  0.51252990  0.68708904  0.12615202    -0.56850
C1029       C  0.61209067  0.74676067  0.09736957     0.75780
O1030       O  0.93201020  0.69805167  0.06017449    -0.58010
C1031       C  0.94665422  0.68084625  0.15073473     0.75750
C1032       C  0.90648417  0.74383294  0.10179753     0.78140
Cd1033     Cd  0.49782105  0.71928102  0.09834835     1.37460
O1034       O  0.58148872  0.74018769  0.12574766    -0.56850
O1035       O  0.91877197  0.73703248  0.13083687    -0.55660
C1036       C  0.47138458  0.68588442  0.05353594     0.78100
O1037       O  0.93125148  0.73761368  0.07415530    -0.58030
O1038       O  0.58993493  0.74072274  0.06934034    -0.56480
O1039       O  0.91974057  0.69620462  0.15094540    -0.56470
O1040       O  0.51693182  0.68755721  0.06994603    -0.55640
O1041       O  0.95142933  0.30735542  0.11881058    -0.56850
C1042       C  0.85519236  0.24883036  0.08721549     0.75780
O1043       O  0.54244398  0.29485428  0.05164476    -0.58010
C1044       C  0.48941949  0.30556900  0.14374088     0.75750
C1045       C  0.55361326  0.24729857  0.09150988     0.78140
Cd1046     Cd  0.97047421  0.27488094  0.09035136     1.37470
O1047       O  0.87641429  0.25445892  0.11559191    -0.56850
O1048       O  0.53039467  0.25308665  0.11997611    -0.55660
C1049       C  0.02272305  0.31066590  0.04854016     0.78100
O1050       O  0.53752418  0.25398481  0.06345803    -0.58030
O1051       O  0.88700720  0.25552094  0.05921003    -0.56480
O1052       O  0.50766600  0.28827982  0.14454123    -0.56470
O1053       O  0.96826581  0.30740523  0.05924112    -0.55640
C1054       C  0.03758574  0.36140048  0.99761018     0.04090
C1055       C  0.02322882  0.34721029  0.02671715    -0.12060
C1056       C  0.05152896  0.32997864  0.02888179     0.01590
C1057       C  0.09923041  0.32876089  0.00495903    -0.10580
C1058       C  0.99798910  0.32020035  0.16971049     0.04090
C1059       C  0.98275086  0.34029461  0.17019087    -0.10000
H1060       H  0.98782652  0.34875315  0.04637794     0.09680
H1061       H  0.12104368  0.31541795  0.00707431     0.07210
H1062       H  0.95862677  0.34491119  0.14949339     0.07060
O1063       O  0.76696574  0.22865503  0.11632031    -0.56850
C1064       C  0.68167951  0.17768788  0.14684426     0.75780
O1065       O  0.62263478  0.22826959  0.06305616    -0.58010
C1066       C  0.79665028  0.23497724  0.08762074     0.75750
C1067       C  0.65425015  0.17155661  0.05026176     0.78140
Cd1068     Cd  0.68244816  0.20671779  0.09216023     1.37460
O1069       O  0.71173870  0.17679584  0.11813261    -0.56850
O1070       O  0.70694329  0.18055426  0.05422580    -0.55660
C1071       C  0.59712378  0.23349060  0.09128882     0.78100
O1072       O  0.61280319  0.17984459  0.06403984    -0.58030
O1073       O  0.64997268  0.19168656  0.14962252    -0.56480
O1074       O  0.77354939  0.22857468  0.06000850    -0.56470
O1075       O  0.61085036  0.22625530  0.11955909    -0.55640
C1076       C  0.74446120  0.14028912  0.20099919     0.04090
C1077       C  0.67357713  0.13790888  0.02805248    -0.12060
C1078       C  0.64445801  0.15500140  0.02502964     0.01590
C1079       C  0.64493919  0.16428893  0.99235594    -0.10580
C1080       C  0.69227174  0.16588468  0.17720995     0.04090
C1081       C  0.71264251  0.14685090  0.17450822    -0.10000
H1082       H  0.66910882  0.12944002  0.05290422     0.09680
H1083       H  0.62028861  0.17686353  0.99014946     0.07210
H1084       H  0.70396696  0.13763971  0.15158301     0.07060
C1085       C  0.01194246  0.38092906  0.99709542     0.04090
C1086       C  0.00296781  0.39102524  0.02877792    -0.12060
C1087       C  0.97880520  0.40928147  0.03067684     0.01590
C1088       C  0.96480460  0.41785900  0.99882538    -0.10580
C1089       C  0.97295184  0.40770967  0.16576183     0.04090
C1090       C  0.98545132  0.38725794  0.16658059    -0.10000
H1091       H  0.01775160  0.38503452  0.05212434     0.09680
H1092       H  0.94512428  0.43170958  0.99972732     0.07210
H1093       H  0.99792263  0.38020717  0.14244003     0.07060
C1094       C  0.02374906  0.54384082  0.10063092     0.04090
C1095       C  0.02580169  0.55477534  0.06868951    -0.12060
C1096       C  0.03453770  0.57690143  0.06677697     0.01590
C1097       C  0.04135092  0.58785556  0.09880326    -0.10580
C1098       C  0.03693498  0.57694923  0.13199061     0.04090
C1099       C  0.02996849  0.55483346  0.13172094    -0.10000
H1100       H  0.01832040  0.54567244  0.04548170     0.09680
H1101       H  0.05007874  0.60490247  0.09775437     0.07210
H1102       H  0.02709046  0.54575467  0.15582200     0.07060
C1103       C  0.99089384  0.45299837  0.09727937     0.04090
C1104       C  0.98424699  0.44230475  0.06595446    -0.12060
C1105       C  0.97509099  0.42018817  0.06546764     0.01590
C1106       C  0.96829896  0.40891252  0.09834252    -0.10580
C1107       C  0.97495759  0.41946921  0.13071488     0.04090
C1108       C  0.98696467  0.44169576  0.12907986    -0.10000
H1109       H  0.98817748  0.45148543  0.04184485     0.09680
H1110       H  0.95757423  0.39187340  0.09850834     0.07210
H1111       H  0.99480368  0.45063360  0.15238577     0.07060
C1112       C  0.00024748  0.61702442  0.00041222     0.04090
C1113       C  0.00815092  0.60664554  0.03174942    -0.12060
C1114       C  0.03088408  0.58800818  0.03195068     0.01590
C1115       C  0.04406933  0.57884296  0.19913926    -0.10580
C1116       C  0.03283363  0.58794747  0.16695248     0.04090
C1117       C  0.01097597  0.60678926  0.16869772    -0.10000
H1118       H  0.99335569  0.61237067  0.05653056     0.09680
H1119       H  0.06345850  0.56493626  0.19869330     0.07210
H1120       H  0.00100720  0.61336970  0.14476361     0.07060
C1121       C  0.55792326  0.51182798  0.08622911    -0.04820
C1122       C  0.01458688  0.52052577  0.10114163     0.01110
C1123       C  0.96046627  0.50744877  0.11466620    -0.07460
C1124       C  0.95464139  0.48544026  0.11260443    -0.04840
C1125       C  0.00064966  0.47632664  0.09728776     0.01100
C1126       C  0.55220257  0.48982330  0.08406042    -0.07370
C1127       C  0.60390149  0.48069612  0.06805426     0.63010
H1128       H  0.59853341  0.52225318  0.07579875     0.13700
H1129       H  0.91389816  0.47506040  0.12295309     0.13710
C1130       C  0.90870436  0.51662429  0.13047775     0.63240
F1131       F  0.64913439  0.49498886  0.25538096    -0.21920
F1132       F  0.58955430  0.47088186  0.03736126    -0.19250
F1133       F  0.61741531  0.46616590  0.09117585    -0.18930
F1134       F  0.89529579  0.53109013  0.10719501    -0.18980
F1135       F  0.92290458  0.52652371  0.16112529    -0.19310
F1136       F  0.85264912  0.50231526  0.94032659    -0.21980
C1137       C  0.71020920  0.01111280  0.09216612    -0.04820
C1138       C  0.76580029  0.02143594  0.10131449     0.01110
C1139       C  0.80809065  0.00939808  0.10952044    -0.07460
C1140       C  0.79271824  0.98722128  0.10864170    -0.04840
C1141       C  0.73712554  0.97691574  0.09945679     0.01100
C1142       C  0.69495857  0.98896010  0.09111020    -0.07370
C1143       C  0.63382118  0.97846901  0.08178163     0.63010
H1144       H  0.67878747  0.02066105  0.08573862     0.13700
H1145       H  0.82412187  0.97765954  0.11504107     0.13710
C1146       C  0.86954714  0.01991273  0.11828566     0.63240
F1147       F  0.59804391  0.99301533  0.07766014    -0.21920
F1148       F  0.60637157  0.96410910  0.10803442    -0.19250
F1149       F  0.63857251  0.96808324  0.05074579    -0.18930
F1150       F  0.86560001  0.03045154  0.14921527    -0.18980
F1151       F  0.89647312  0.03414635  0.09173352    -0.19310
F1152       F  0.90537560  0.00536209  0.12223843    -0.21940
C1153       C  0.76379258  0.11941307  0.19971222     0.04090
C1154       C  0.75039962  0.10484417  0.36856012    -0.12060
C1155       C  0.77919999  0.08769290  0.36651157     0.01590
C1156       C  0.79522004  0.07968188  0.39824735    -0.10580
C1157       C  0.78706752  0.08916973  0.23139886     0.04090
C1158       C  0.76863548  0.10865395  0.23107337    -0.10000
H1159       H  0.73376772  0.11000540  0.34520301     0.09680
H1160       H  0.81745290  0.06642948  0.39722235     0.07210
H1161       H  0.75526715  0.11522734  0.25548610     0.07060
C1162       C  0.72507033  0.95340993  0.29987469     0.04090
C1163       C  0.72292605  0.94247946  0.26863833    -0.12060
C1164       C  0.71323125  0.92034556  0.26863983     0.01590
C1165       C  0.70711414  0.90939681  0.30185693    -0.10580
C1166       C  0.71310405  0.92036603  0.33394877     0.04090
C1167       C  0.72126502  0.94248194  0.33199447    -0.10000
H1168       H  0.73146967  0.95154999  0.24422709     0.09680
H1169       H  0.69826977  0.89233384  0.30272426     0.07210
H1170       H  0.72744027  0.95159879  0.35528627     0.07060
C1171       C  0.77718655  0.04438389  0.29969387     0.04090
C1172       C  0.78123119  0.05559017  0.26779833    -0.12060
C1173       C  0.78867442  0.07773040  0.26631123     0.01590
C1174       C  0.79255023  0.08832867  0.29883409    -0.10580
C1175       C  0.78558058  0.07704424  0.33170791     0.04090
C1176       C  0.77792360  0.05499396  0.33123791    -0.10000
H1177       H  0.77598901  0.04659445  0.24435271     0.09680
H1178       H  0.80034199  0.10537000  0.29885856     0.07210
H1179       H  0.76945326  0.04577457  0.35552875     0.07060
C1180       C  0.75061211  0.88085283  0.40014541     0.04090
C1181       C  0.73699944  0.89041030  0.23183687    -0.12060
C1182       C  0.71537071  0.90923260  0.23387565     0.01590
C1183       C  0.70408103  0.91813624  0.40182155    -0.10580
C1184       C  0.71723212  0.90936126  0.36880250     0.04090
C1185       C  0.74093756  0.89093075  0.36890338    -0.10000
H1186       H  0.75226468  0.88441204  0.25496114     0.09680
H1187       H  0.68460297  0.93203679  0.40264545     0.07210
H1188       H  0.75533603  0.88524059  0.34403928     0.07060
C1189       C  0.77707510  0.86120258  0.39885806     0.04090
C1190       C  0.76326183  0.84704716  0.22991424    -0.12060
C1191       C  0.79302079  0.83001445  0.22984513     0.01590
C1192       C  0.84430427  0.82953662  0.39359575    -0.10580
C1193       C  0.81264212  0.83322913  0.36618128     0.04090
C1194       C  0.78196594  0.84998065  0.36762820    -0.10000
H1195       H  0.73437640  0.84929358  0.25271289     0.09680
H1196       H  0.86840987  0.81670044  0.39166176     0.07210
H1197       H  0.75781861  0.85256170  0.34569305     0.07060
O1198       O  0.73886546  0.80888603  0.34095437    -0.56850
C1199       C  0.64117297  0.75301681  0.30897979     0.75780
O1200       O  0.80120182  0.79637725  0.25232027    -0.58010
C1201       C  0.79302491  0.81480711  0.34579817     0.75750
C1202       C  0.83989499  0.75289617  0.30755889     0.78140
Cd1203     Cd  0.75605083  0.77987895  0.30553102     1.37470
O1204       O  0.66409306  0.75935588  0.33670541    -0.56850
O1205       O  0.81447254  0.75854719  0.33548975    -0.55660
C1206       C  0.77635776  0.81225622  0.25497473     0.78100
O1207       O  0.82566173  0.75939999  0.27884503    -0.58030
O1208       O  0.67132732  0.75904719  0.28023591    -0.56480
O1209       O  0.82816157  0.80290006  0.33557904    -0.56470
O1210       O  0.73523338  0.81159841  0.27908806    -0.55640
C1211       C  0.47844374  0.63821468  0.20169287     0.04090
C1212       C  0.46471840  0.64798225  0.23343461    -0.12060
C1213       C  0.43819949  0.66576095  0.23310111     0.01590
C1214       C  0.41830390  0.67194494  0.20266663    -0.10580
C1215       C  0.41027658  0.65921316  0.37830318     0.04090
C1216       C  0.43857708  0.64188607  0.37403524    -0.10000
H1217       H  0.47757074  0.64322207  0.25809644     0.09680
H1218       H  0.39555879  0.68513116  0.20313221     0.07210
H1219       H  0.44295737  0.63568728  0.34820774     0.07060
O1220       O  0.47640412  0.68000920  0.33520371    -0.56850
C1221       C  0.58232323  0.73938293  0.30966503     0.75780
O1222       O  0.92399057  0.69642235  0.26039989    -0.58010
C1223       C  0.92690554  0.67672613  0.35396911     0.75750
C1224       C  0.88379639  0.73938048  0.30829419     0.78140
Cd1225     Cd  0.46660466  0.71289952  0.30902598     1.37460
O1226       O  0.55144917  0.73278608  0.33798359    -0.56850
O1227       O  0.89899447  0.73305891  0.33689358    -0.55660
C1228       C  0.44841543  0.68193616  0.25916353     0.78100
O1229       O  0.90808041  0.73347561  0.28022729    -0.58030
O1230       O  0.55996086  0.73371125  0.28158228    -0.56480
O1231       O  0.89714466  0.69121145  0.35255787    -0.56470
O1232       O  0.48965256  0.68268036  0.27881329    -0.55640
O1233       O  0.03319246  0.31015275  0.35334980    -0.56850
C1234       C  0.93435119  0.25883056  0.31378193     0.75780
O1235       O  0.59155658  0.30237350  0.24928300    -0.58010
C1236       C  0.58432230  0.32099912  0.34917672     0.75750
C1237       C  0.63435016  0.25928595  0.30881681     0.78140
Cd1238     Cd  0.04969595  0.28613848  0.30991543     1.37470
O1239       O  0.95743495  0.26472689  0.34164402    -0.56850
O1240       O  0.60874685  0.26503092  0.33656436    -0.55660
C1241       C  0.04871904  0.31477544  0.25542630     0.78100
O1242       O  0.62167395  0.26618865  0.28004700    -0.58030
O1243       O  0.96431461  0.26538380  0.28528208    -0.56480
O1244       O  0.62513675  0.31395412  0.33198949    -0.56470
O1245       O  0.01942064  0.31615101  0.28430708    -0.55640
C1246       C  0.99787473  0.35407279  0.19795892     0.04090
C1247       C  0.02445292  0.34636736  0.22592153    -0.12060
C1248       C  0.03873521  0.32632131  0.22471155     0.01590
C1249       C  0.02958982  0.31429629  0.19570738    -0.10580
C1250       C  0.10068593  0.33753391  0.37553569     0.04090
C1251       C  0.07567099  0.35554344  0.37190755    -0.10000
H1252       H  0.03457311  0.35561127  0.24863542     0.09680
H1253       H  0.04134457  0.29884188  0.19548734     0.07210
H1254       H  0.08212967  0.36388192  0.34685661     0.07060
O1255       O  0.84382847  0.23797137  0.34134084    -0.56850
C1256       C  0.71110688  0.18233939  0.34944473     0.75780
O1257       O  0.70122088  0.23955116  0.28144059    -0.58010
C1258       C  0.87581204  0.24510606  0.31360603     0.75750
C1259       C  0.75479689  0.18959304  0.25575076     0.78140
Cd1260     Cd  0.76199726  0.21861183  0.30916439     1.37460
O1261       O  0.76668279  0.18754127  0.34243273    -0.56850
O1262       O  0.78434242  0.18675562  0.28080922    -0.55660
C1263       C  0.67738176  0.24547313  0.30957593     0.78100
O1264       O  0.73820797  0.20714374  0.25375162    -0.58030
O1265       O  0.68001224  0.19541877  0.34124576    -0.56480
O1266       O  0.85505679  0.23988663  0.28492865    -0.56470
O1267       O  0.69292131  0.23911743  0.33803584    -0.55640
C1268       C  0.70856849  0.13304464  0.40029972     0.04090
C1269       C  0.75925971  0.15436663  0.22833555    -0.12060
C1270       C  0.73804786  0.17333972  0.23030487     0.01590
C1271       C  0.69990084  0.17762950  0.20667402    -0.10580
C1272       C  0.68488830  0.16289615  0.36911273     0.04090
C1273       C  0.71623871  0.14646982  0.37036775    -0.10000
H1274       H  0.78800984  0.15091043  0.24743718     0.09680
H1275       H  0.68284689  0.19211161  0.20845708     0.07210
H1276       H  0.75002489  0.14541956  0.34940080     0.07060
C1277       C  0.98490148  0.37598856  0.19823741     0.04090
C1278       C  0.97520915  0.38602822  0.23007035    -0.12060
C1279       C  0.96664920  0.40702672  0.23133612     0.01590
C1280       C  0.96228277  0.41715205  0.19859226    -0.10580
C1281       C  0.97837973  0.40834621  0.36612058     0.04090
C1282       C  0.00033781  0.38947383  0.36681943    -0.10000
H1283       H  0.97526589  0.37733281  0.25401106     0.09680
H1284       H  0.94995275  0.43235952  0.19845932     0.07210
H1285       H  0.00967851  0.38196587  0.34258593     0.07060
C1286       C  0.02062044  0.54324188  0.30100627     0.04090
C1287       C  0.02344460  0.55417622  0.26896154    -0.12060
C1288       C  0.03278740  0.57630371  0.26692952     0.01590
C1289       C  0.03942208  0.58734913  0.29884280    -0.10580
C1290       C  0.03448289  0.57656539  0.33209163     0.04090
C1291       C  0.02697095  0.55438025  0.33205298    -0.10000
H1292       H  0.01604963  0.54510028  0.24570839     0.09680
H1293       H  0.04840013  0.60439846  0.29765269     0.07210
H1294       H  0.02406487  0.54542444  0.35627253     0.07060
C1295       C  0.98457101  0.45207807  0.29700170     0.04090
C1296       C  0.97584082  0.44083265  0.26626835    -0.12060
C1297       C  0.96716367  0.41855973  0.26624973     0.01590
C1298       C  0.96429315  0.40795536  0.29968108    -0.10580
C1299       C  0.97373011  0.41915793  0.33122307     0.04090
C1300       C  0.98388490  0.44129257  0.32887342    -0.10000
H1301       H  0.97740777  0.44994145  0.24241159     0.09680
H1302       H  0.95435344  0.39097549  0.30172082     0.07210
H1303       H  0.99335019  0.45052777  0.35173832     0.07060
C1304       C  0.99836045  0.61627380  0.20072441     0.04090
C1305       C  0.00589283  0.60581064  0.23197601    -0.12060
C1306       C  0.02953837  0.58739652  0.23210961     0.01590
C1307       C  0.04234931  0.57896428  0.39908534    -0.10580
C1308       C  0.03058084  0.58783883  0.36681770     0.04090
C1309       C  0.00878055  0.60674246  0.36836586    -0.10000
H1310       H  0.99004401  0.61126564  0.25674551     0.09680
H1311       H  0.06186384  0.56508705  0.39864841     0.07210
H1312       H  0.00013728  0.61387529  0.34444837     0.07060
C1313       C  0.55526251  0.51099125  0.28402853    -0.04820
C1314       C  0.01059418  0.51982642  0.30143979     0.01110
C1315       C  0.95679414  0.50686188  0.31583322    -0.07460
C1316       C  0.94990939  0.48481111  0.31323843    -0.04840
C1317       C  0.99437588  0.47549302  0.29643772     0.01100
C1318       C  0.54853364  0.48894024  0.28155766    -0.07370
C1319       C  0.59881394  0.47964394  0.26405723     0.63010
H1320       H  0.59558703  0.52126405  0.27281938     0.13700
H1321       H  0.90960371  0.47454599  0.32449270     0.13710
C1322       C  0.90634052  0.51617341  0.33312691     0.63240
F1323       F  0.65693434  0.49659124  0.46044463    -0.21920
F1324       F  0.58194638  0.47002778  0.23363618    -0.19250
F1325       F  0.61348192  0.46491809  0.28635037    -0.18930
F1326       F  0.89260131  0.53116939  0.31097507    -0.18980
F1327       F  0.92241471  0.52545760  0.36394048    -0.19310
F1328       F  0.85836321  0.50115024  0.13826985    -0.21980
C1329       C  0.70990481  0.01064734  0.29078429    -0.04820
C1330       C  0.76521283  0.02107396  0.30010224     0.01110
C1331       C  0.80774368  0.00929179  0.30876632    -0.07460
C1332       C  0.79288747  0.98715970  0.30810248    -0.04840
C1333       C  0.73749524  0.97672774  0.29889770     0.01100
C1334       C  0.69505961  0.98851966  0.29007772    -0.07370
C1335       C  0.63408244  0.97781851  0.28074155     0.63010
H1336       H  0.67833827  0.02008233  0.28412781     0.13700
H1337       H  0.82444017  0.97772835  0.31479664     0.13710
C1338       C  0.86877327  0.02002269  0.31794538     0.63240
F1339       F  0.59787240  0.99221290  0.27656363    -0.21920
F1340       F  0.60690305  0.96343035  0.30701690    -0.19250
F1341       F  0.63909996  0.96742963  0.24973071    -0.18930
F1342       F  0.86390993  0.03051742  0.34886097    -0.18980
F1343       F  0.89580216  0.03433258  0.29152496    -0.19310
F1344       F  0.90500344  0.00564128  0.32218084    -0.21940
C1345       C  0.73929835  0.11465272  0.40034146     0.04090
C1346       C  0.76385546  0.10797939  0.56753086    -0.12060
C1347       C  0.78462125  0.08891535  0.56588282     0.01590
C1348       C  0.79576689  0.07974452  0.59808624    -0.10580
C1349       C  0.78177508  0.08844206  0.43128058     0.04090
C1350       C  0.75527227  0.10630957  0.43136788    -0.10000
H1351       H  0.75592702  0.11540898  0.54368554     0.09680
H1352       H  0.81444565  0.06567244  0.59749273     0.07210
H1353       H  0.74527850  0.11327905  0.45594927     0.07060
C1354       C  0.72516282  0.95358136  0.49977899     0.04090
C1355       C  0.72306244  0.94262735  0.46851424    -0.12060
C1356       C  0.71329849  0.92046406  0.46853674     0.01590
C1357       C  0.70629232  0.90952997  0.50180130    -0.10580
C1358       C  0.71189736  0.92049168  0.53390937     0.04090
C1359       C  0.72075430  0.94262691  0.53191837    -0.10000
H1360       H  0.73170448  0.95168239  0.44407841     0.09680
H1361       H  0.69702311  0.89246804  0.50270646     0.07210
H1362       H  0.72678173  0.95173120  0.55523179     0.07060
C1363       C  0.77765645  0.04468382  0.49981312     0.04090
C1364       C  0.78081495  0.05560139  0.46778034    -0.12060
C1365       C  0.78813930  0.07769182  0.46587579     0.01590
C1366       C  0.79420800  0.08871202  0.49783275    -0.10580
C1367       C  0.78851179  0.07782969  0.53108459     0.04090
C1368       C  0.77976338  0.05565382  0.53105708    -0.10000
H1369       H  0.77444322  0.04647068  0.44450899     0.09680
H1370       H  0.80266923  0.10575144  0.49668334     0.07210
H1371       H  0.77164650  0.04654215  0.55541548     0.07060
C1372       C  0.74491882  0.88043990  0.60073235     0.04090
C1373       C  0.73983218  0.89071090  0.43207003    -0.12060
C1374       C  0.71705652  0.90933917  0.43379726     0.01590
C1375       C  0.70100581  0.91825246  0.60181552    -0.10580
C1376       C  0.71460869  0.90939734  0.56889588     0.04090
C1377       C  0.73717109  0.89071541  0.56930293    -0.10000
H1378       H  0.75215205  0.88469165  0.45589433     0.09680
H1379       H  0.68252969  0.93236923  0.60235457     0.07210
H1380       H  0.75217265  0.88489127  0.54464234     0.07060
C1381       C  0.77057368  0.86063028  0.59980124     0.04090
C1382       C  0.79191969  0.85146395  0.42923866    -0.12060
C1383       C  0.82074748  0.83421287  0.42613130     0.01590
C1384       C  0.83678881  0.82867927  0.59467404    -0.10580
C1385       C  0.80365654  0.83194178  0.56770963     0.04090
C1386       C  0.77293478  0.84872877  0.56911348    -0.10000
H1387       H  0.77639546  0.85531278  0.45518312     0.09680
H1388       H  0.86202940  0.81617561  0.59291751     0.07210
H1389       H  0.74828519  0.85133975  0.54740743     0.07060
O1390       O  0.74510981  0.81215833  0.52719283    -0.56850
C1391       C  0.65537430  0.75428979  0.50004172     0.75780
O1392       O  0.83216922  0.80124218  0.45040916    -0.58010
C1393       C  0.78972211  0.81435607  0.54448740     0.75750
C1394       C  0.85733794  0.75601195  0.49809179     0.78140
Cd1395     Cd  0.76973870  0.78160908  0.49801459     1.37470
O1396       O  0.67863895  0.76015928  0.52779181    -0.56850
O1397       O  0.83280099  0.76149854  0.52643057    -0.55660
C1398       C  0.80378044  0.81619224  0.45075232     0.78100
O1399       O  0.84028546  0.76193891  0.46978158    -0.58030
O1400       O  0.68507351  0.76085759  0.47136425    -0.56480
O1401       O  0.81961383  0.79982446  0.54291190    -0.56470
O1402       O  0.75621487  0.81377110  0.47053170    -0.55640
C1403       C  0.46629020  0.63487975  0.40216236     0.04090
C1404       C  0.47065149  0.64779439  0.43163594    -0.12060
C1405       C  0.43805330  0.66396316  0.43502989     0.01590
C1406       C  0.39663168  0.66542975  0.41169196    -0.10580
C1407       C  0.42582508  0.66361582  0.57672275     0.04090
C1408       C  0.45093098  0.64553416  0.57328968    -0.10000
H1409       H  0.50144067  0.64621226  0.45066647     0.09680
H1410       H  0.37050712  0.67763309  0.41498005     0.07210
H1411       H  0.45413317  0.63898211  0.54768706     0.07060
O1412       O  0.48899791  0.68223279  0.53021651    -0.56850
C1413       C  0.59652526  0.74068978  0.50101673     0.75780
O1414       O  0.93762631  0.69949489  0.45452487    -0.58010
C1415       C  0.96167794  0.68436871  0.54676187     0.75750
C1416       C  0.90359104  0.74340378  0.49802017     0.78140
Cd1417     Cd  0.48034355  0.71481106  0.50223233     1.37460
O1418       O  0.56618654  0.73437967  0.52962946    -0.56850
O1419       O  0.92033888  0.73728433  0.52628855    -0.55660
C1420       C  0.45582907  0.68217729  0.45638974     0.78100
O1421       O  0.92864816  0.73818787  0.46964580    -0.58030
O1422       O  0.57350262  0.73486702  0.47317827    -0.56480
O1423       O  0.93400310  0.69952580  0.54721607    -0.56470
O1424       O  0.50280772  0.68462031  0.47163029    -0.55640
O1425       O  0.95753770  0.30798542  0.52435800    -0.56850
C1426       C  0.85605384  0.24913844  0.49543556     0.75780
O1427       O  0.53655719  0.29293708  0.45067734    -0.58010
C1428       C  0.49918508  0.30710978  0.54407770     0.75750
C1429       C  0.55373578  0.24736948  0.49703987     0.78140
Cd1430     Cd  0.97246512  0.27510560  0.49639388     1.37470
O1431       O  0.87740532  0.25524910  0.52363273    -0.56850
O1432       O  0.52950580  0.25307592  0.52527235    -0.55660
C1433       C  0.01985850  0.30992481  0.45105194     0.78100
O1434       O  0.53846379  0.25401339  0.46871409    -0.58030
O1435       O  0.88782911  0.25543532  0.46727607    -0.56480
O1436       O  0.51844675  0.29002681  0.54464205    -0.56470
O1437       O  0.96797741  0.30784526  0.46597576    -0.55640
C1438       C  0.03746646  0.36098243  0.39957501     0.04090
C1439       C  0.02034067  0.34643111  0.42809843    -0.12060
C1440       C  0.04853026  0.32919354  0.43094341     0.01590
C1441       C  0.09876298  0.32852593  0.40857961    -0.10580
C1442       C  0.02235546  0.32515251  0.56504620     0.04090
C1443       C  0.99821917  0.34345276  0.56885666    -0.10000
H1444       H  0.98348289  0.34787313  0.44678622     0.09680
H1445       H  0.12095587  0.31531866  0.41119288     0.07210
H1446       H  0.96530907  0.34626153  0.55195966     0.07060
O1447       O  0.76694164  0.22878409  0.52414686    -0.56850
C1448       C  0.66576744  0.17479303  0.54965466     0.75780
O1449       O  0.62321890  0.22848299  0.46905358    -0.58010
C1450       C  0.79752120  0.23518261  0.49571703     0.75750
C1451       C  0.65707744  0.17301381  0.45307939     0.78140
Cd1452     Cd  0.68277557  0.20703918  0.49793059     1.37460
O1453       O  0.70453402  0.17585183  0.52414734    -0.56850
O1454       O  0.70645913  0.17781902  0.46565795    -0.55660
C1455       C  0.59753936  0.23371342  0.49722779     0.78100
O1456       O  0.62077139  0.18520890  0.45905060    -0.58030
O1457       O  0.63510748  0.18913624  0.55144765    -0.56480
O1458       O  0.77537672  0.22875321  0.46785394    -0.56470
O1459       O  0.61137584  0.22664046  0.52563943    -0.55640
C1460       C  0.72508731  0.13670395  0.60122921     0.04090
C1461       C  0.67649620  0.13913441  0.43026682    -0.12060
C1462       C  0.64764777  0.15634025  0.42782038     0.01590
C1463       C  0.64047521  0.16415218  0.39516488    -0.10580
C1464       C  0.66490864  0.16012774  0.57885910     0.04090
C1465       C  0.69182381  0.14247079  0.57477353    -0.10000
H1466       H  0.67760335  0.13212230  0.45579501     0.09680
H1467       H  0.61711515  0.17713535  0.39372305     0.07210
H1468       H  0.68873381  0.13428047  0.55046578     0.07060
C1469       C  0.01215549  0.38053310  0.39844271     0.04090
C1470       C  0.00255316  0.39079577  0.42986597    -0.12060
C1471       C  0.97922190  0.40926087  0.43109103     0.01590
C1472       C  0.96633302  0.41771088  0.39884447    -0.10580
C1473       C  0.97429054  0.40877745  0.56582863     0.04090
C1474       C  0.99175072  0.38919351  0.56624058    -0.10000
H1475       H  0.01630383  0.38474188  0.45348996     0.09680
H1476       H  0.94715769  0.43167385  0.39917789     0.07210
H1477       H  0.00500660  0.38253257  0.54185160     0.07060
C1478       C  0.02242234  0.54409464  0.50106833     0.04090
C1479       C  0.02440489  0.55487674  0.46905082    -0.12060
C1480       C  0.03280525  0.57695411  0.46693165     0.01590
C1481       C  0.03941483  0.58806899  0.49883185    -0.10580
C1482       C  0.03542478  0.57730014  0.53210209     0.04090
C1483       C  0.02849423  0.55517886  0.53206760    -0.10000
H1484       H  0.01700409  0.54567677  0.44593264     0.09680
H1485       H  0.04765679  0.60511685  0.49764075     0.07210
H1486       H  0.02563251  0.54617319  0.55624377     0.07060
C1487       C  0.98958612  0.45344504  0.49700583     0.04090
C1488       C  0.98384679  0.44257731  0.46575912    -0.12060
C1489       C  0.97494265  0.42044185  0.46562751     0.01590
C1490       C  0.96785190  0.40940844  0.49871364    -0.10580
C1491       C  0.97409759  0.42020473  0.53087784     0.04090
C1492       C  0.98522809  0.44236026  0.52901263    -0.10000
H1493       H  0.98819369  0.45163291  0.44149795     0.09680
H1494       H  0.95745606  0.39235739  0.49929522     0.07210
H1495       H  0.99235816  0.45136816  0.55233912     0.07060
C1496       C  0.99567546  0.61605007  0.40041292     0.04090
C1497       C  0.00468475  0.60610274  0.43174260    -0.12060
C1498       C  0.02865358  0.58778172  0.43202346     0.01590
C1499       C  0.04514895  0.57956386  0.59892133    -0.10580
C1500       C  0.03263787  0.58850381  0.56690761     0.04090
C1501       C  0.01140681  0.60747588  0.56873347    -0.10000
H1502       H  0.98981328  0.61210428  0.45637687     0.09680
H1503       H  0.06381199  0.56549939  0.59833862     0.07210
H1504       H  0.99815566  0.61354270  0.54520249     0.07060
C1505       C  0.56053057  0.51205110  0.48663323    -0.04820
C1506       C  0.01342033  0.52082799  0.50162131     0.01110
C1507       C  0.95898696  0.50775900  0.51457127    -0.07460
C1508       C  0.95299705  0.48578813  0.51204328    -0.04840
C1509       C  0.99918952  0.47673103  0.49684140     0.01100
C1510       C  0.55484285  0.49007344  0.48406401    -0.07370
C1511       C  0.60664861  0.48104941  0.46794239     0.63010
H1512       H  0.60117671  0.52252960  0.47639893     0.13700
H1513       H  0.91204629  0.47538839  0.52201619     0.13710
C1514       C  0.90714660  0.51691621  0.53029993     0.63240
F1515       F  0.65173327  0.49556512  0.65792210    -0.21920
F1516       F  0.59246647  0.47142342  0.43707378    -0.19250
F1517       F  0.62010800  0.46638999  0.49084388    -0.18930
F1518       F  0.89400245  0.53145514  0.50705171    -0.18980
F1519       F  0.92112761  0.52672832  0.56105321    -0.19310
F1520       F  0.85562365  0.50088856  0.34106448    -0.21980
C1521       C  0.70952054  0.01087560  0.49198416    -0.04820
C1522       C  0.76529033  0.02132444  0.50062547     0.01110
C1523       C  0.80827462  0.00951830  0.50840357    -0.07460
C1524       C  0.79346410  0.98737068  0.50756019    -0.04840
C1525       C  0.73768590  0.97693034  0.49893241     0.01100
C1526       C  0.69476432  0.98873632  0.49105090    -0.07370
C1527       C  0.63343279  0.97799651  0.48238535     0.63010
H1528       H  0.67758980  0.02030105  0.48592624     0.13700
H1529       H  0.82537743  0.97793840  0.51361961     0.13710
C1530       C  0.86975760  0.02026569  0.51677218     0.63240
F1531       F  0.59700578  0.99236171  0.47859903    -0.21920
F1532       F  0.60706665  0.96365225  0.50890416    -0.19250
F1533       F  0.63758367  0.96753148  0.45138752    -0.18930
F1534       F  0.86601421  0.03084729  0.54767413    -0.18980
F1535       F  0.89587281  0.03450970  0.49006081    -0.19310
F1536       F  0.90617311  0.00589271  0.52053537    -0.21940
C1537       C  0.75098236  0.11718352  0.59961736     0.04090
C1538       C  0.76802461  0.10912616  0.76768475    -0.12060
C1539       C  0.78506220  0.08936936  0.76600582     0.01590
C1540       C  0.79563021  0.08000400  0.79810762    -0.10580
C1541       C  0.78251986  0.08853017  0.63110578     0.04090
C1542       C  0.75945691  0.10707132  0.63091890    -0.10000
H1543       H  0.76106119  0.11656152  0.74372417     0.09680
H1544       H  0.81280831  0.06563318  0.79722091     0.07210
H1545       H  0.74496771  0.11317922  0.65555639     0.07060
C1546       C  0.72053421  0.95326726  0.70050271     0.04090
C1547       C  0.71796631  0.94240784  0.66913379    -0.12060
C1548       C  0.70810277  0.92023664  0.66892269     0.01590
C1549       C  0.70122827  0.90919218  0.70212090    -0.10580
C1550       C  0.70820498  0.91998857  0.73428911     0.04090
C1551       C  0.71717181  0.94217180  0.73247048    -0.10000
H1552       H  0.72634539  0.95155823  0.64480384     0.09680
H1553       H  0.69092246  0.89215545  0.70290379     0.07210
H1554       H  0.72408970  0.95123804  0.75574199     0.07060
C1555       C  0.77267650  0.04455991  0.70041712     0.04090
C1556       C  0.77663145  0.05539573  0.66820505    -0.12060
C1557       C  0.78608823  0.07753166  0.66599558     0.01590
C1558       C  0.79314338  0.08867157  0.69783608    -0.10580
C1559       C  0.78660344  0.07795428  0.73128189     0.04090
C1560       C  0.77574478  0.05571406  0.73152746    -0.10000
H1561       H  0.76989577  0.04623137  0.64499919     0.09680
H1562       H  0.80340489  0.10571218  0.69636978     0.07210
H1563       H  0.76725095  0.04671700  0.75599677     0.07060
C1564       C  0.74766158  0.88042149  0.79985129     0.04090
C1565       C  0.73295952  0.89019364  0.63257254    -0.12060
C1566       C  0.71197990  0.90917469  0.63405341     0.01590
C1567       C  0.70316477  0.91799403  0.80210252    -0.10580
C1568       C  0.71286628  0.90877157  0.76900132     0.04090
C1569       C  0.73339474  0.88961809  0.76895682    -0.10000
H1570       H  0.74263871  0.88370833  0.65664965     0.09680
H1571       H  0.68450359  0.93206657  0.80330400     0.07210
H1572       H  0.74019087  0.88227507  0.74439352     0.07060
C1573       C  0.77428857  0.86095001  0.79930383     0.04090
C1574       C  0.78864989  0.85181049  0.63004326    -0.12060
C1575       C  0.81710205  0.83452646  0.62721202     0.01590
C1576       C  0.84134590  0.82944756  0.80179662    -0.10580
C1577       C  0.82925263  0.83655712  0.76986108     0.04090
C1578       C  0.80140104  0.85395887  0.76835248    -0.10000
H1579       H  0.77740988  0.85670613  0.65603525     0.09680
H1580       H  0.86612484  0.81681584  0.80220545     0.07210
H1581       H  0.79768437  0.86048595  0.74286774     0.07060
O1582       O  0.76065125  0.81387180  0.73887603    -0.56850
C1583       C  0.66277176  0.75889228  0.70571835     0.75780
O1584       O  0.83174422  0.80228654  0.65238512    -0.58010
C1585       C  0.81349311  0.81920893  0.74665769     0.75750
C1586       C  0.85715753  0.75634244  0.70714014     0.78140
Cd1587     Cd  0.77914599  0.78502308  0.70426702     1.37470
O1588       O  0.68499586  0.76484226  0.73381151    -0.56850
O1589       O  0.83249194  0.76246934  0.73492154    -0.55660
C1590       C  0.80483556  0.81766907  0.65397072     0.78100
O1591       O  0.84512319  0.76335470  0.67821848    -0.58030
O1592       O  0.69385261  0.76516659  0.67735534    -0.56480
O1593       O  0.84895339  0.80712454  0.73789773    -0.56470
O1594       O  0.76228233  0.81664493  0.67729252    -0.55640
C1595       C  0.47614218  0.63787741  0.60194536     0.04090
C1596       C  0.48186483  0.65094458  0.63134252    -0.12060
C1597       C  0.45308580  0.66824509  0.63380088     0.01590
C1598       C  0.41393303  0.67079235  0.60961198    -0.10580
C1599       C  0.43264438  0.66448288  0.77359696     0.04090
C1600       C  0.46115088  0.64714283  0.77108304    -0.10000
H1601       H  0.51055255  0.64847480  0.65111162     0.09680
H1602       H  0.39017133  0.68368732  0.61220570     0.07210
H1603       H  0.48041665  0.64385315  0.74564022     0.07060
O1604       O  0.50117762  0.68561444  0.73185758    -0.56850
C1605       C  0.60398666  0.74524437  0.70571916     0.75780
O1606       O  0.92905856  0.69770564  0.66152607    -0.58010
C1607       C  0.93382168  0.67775945  0.75385186     0.75750
C1608       C  0.89800922  0.74178970  0.70823801     0.78140
Cd1609     Cd  0.48955348  0.71805019  0.70446894     1.37460
O1610       O  0.57279990  0.73837121  0.73379446    -0.56850
O1611       O  0.91112858  0.73491396  0.73700968    -0.55660
C1612       C  0.47059478  0.68601473  0.65634304     0.78100
O1613       O  0.92176663  0.73556770  0.68028258    -0.58030
O1614       O  0.58225172  0.73967482  0.67739739    -0.56480
O1615       O  0.90584310  0.69278521  0.75300600    -0.56470
O1616       O  0.51123519  0.68644653  0.67630934    -0.55640
O1617       O  0.01217588  0.31287525  0.72944440    -0.56850
C1618       C  0.92104110  0.25783896  0.69929043     0.75780
O1619       O  0.58644954  0.29996189  0.64583577    -0.58010
C1620       C  0.54827960  0.31450950  0.74330406     0.75750
C1621       C  0.61514410  0.25635302  0.69891941     0.78140
Cd1622     Cd  0.03677233  0.28432382  0.69644006     1.37470
O1623       O  0.94474959  0.26369038  0.72691849    -0.56850
O1624       O  0.59030462  0.26226736  0.72678747    -0.55660
C1625       C  0.06445419  0.31703052  0.64548010     0.78100
O1626       O  0.59908289  0.26202444  0.67016895    -0.58030
O1627       O  0.95060672  0.26422718  0.67051451    -0.56480
O1628       O  0.57972042  0.30047463  0.74061884    -0.56470
O1629       O  0.02378175  0.31654905  0.66975829    -0.55640
C1630       C  0.01536185  0.35762198  0.59566943     0.04090
C1631       C  0.04890069  0.35095891  0.62106375    -0.12060
C1632       C  0.07062859  0.33222856  0.61654690     0.01590
C1633       C  0.06786826  0.32256938  0.58480954    -0.10580
C1634       C  0.07533454  0.33461672  0.76487817     0.04090
C1635       C  0.04339807  0.35096370  0.76581318    -0.10000
H1636       H  0.05555935  0.35929258  0.64505848     0.09680
H1637       H  0.08825662  0.30890411  0.58091398     0.07210
H1638       H  0.02190407  0.35376552  0.74289760     0.07060
O1639       O  0.83215358  0.23771518  0.72897773    -0.56850
C1640       C  0.70708153  0.18344482  0.74950305     0.75780
O1641       O  0.68493034  0.23748565  0.67195559    -0.58010
C1642       C  0.86215612  0.24426575  0.70039356     0.75750
C1643       C  0.72655556  0.18576531  0.65389000     0.78140
Cd1644     Cd  0.74688431  0.21760506  0.70137736     1.37460
O1645       O  0.75309458  0.18445718  0.72875997    -0.56850
O1646       O  0.76774183  0.18606774  0.67345866    -0.55660
C1647       C  0.66049971  0.24349989  0.69985978     0.78100
O1648       O  0.70270134  0.20184935  0.65333828    -0.58030
O1649       O  0.68131329  0.19907112  0.74927925    -0.56480
O1650       O  0.83899011  0.23852196  0.67260388    -0.56470
O1651       O  0.67694808  0.23790348  0.72855019    -0.55640
C1652       C  0.73701689  0.13962430  0.80143698     0.04090
C1653       C  0.73636939  0.15081199  0.62872552    -0.12060
C1654       C  0.70727140  0.16790076  0.63209187     0.01590
C1655       C  0.66320267  0.16959440  0.61073297    -0.10580
C1656       C  0.69118067  0.16676363  0.77654287     0.04090
C1657       C  0.71320559  0.14804469  0.77291731    -0.10000
H1658       H  0.76901594  0.14904628  0.64649248     0.09680
H1659       H  0.63952783  0.18246875  0.61419522     0.07210
H1660       H  0.71501083  0.14146600  0.74729067     0.07060
C1661       C  0.99601864  0.37841472  0.59756801     0.04090
C1662       C  0.98581679  0.38810051  0.62969970    -0.12060
C1663       C  0.97022103  0.40816915  0.63124539     0.01590
C1664       C  0.96214858  0.41784268  0.59877040    -0.10580
C1665       C  0.97213377  0.40898405  0.76637306     0.04090
C1666       C  0.99671934  0.39078012  0.76665153    -0.10000
H1667       H  0.99141899  0.38008050  0.65351475     0.09680
H1668       H  0.94631210  0.43246583  0.59897614     0.07210
H1669       H  0.01174515  0.38526792  0.74180932     0.07060
C1670       C  0.02257573  0.54410408  0.70073288     0.04090
C1671       C  0.02564366  0.55510996  0.66874407    -0.12060
C1672       C  0.03588706  0.57726422  0.66676097     0.01590
C1673       C  0.04320165  0.58820900  0.69877923    -0.10580
C1674       C  0.03780938  0.57731195  0.73199983     0.04090
C1675       C  0.02940944  0.55512752  0.73181352    -0.10000
H1676       H  0.01766994  0.54605825  0.64552744     0.09680
H1677       H  0.05307524  0.60525344  0.69774417     0.07210
H1678       H  0.02596757  0.54605968  0.75596464     0.07060
C1679       C  0.98265568  0.45293962  0.69713659     0.04090
C1680       C  0.97656582  0.44178489  0.66611908    -0.12060
C1681       C  0.96781643  0.41954210  0.66610152     0.01590
C1682       C  0.96215873  0.40881298  0.69950988    -0.10580
C1683       C  0.96875498  0.41993045  0.73142185     0.04090
C1684       C  0.97872514  0.44205062  0.72926913    -0.10000
H1685       H  0.98050398  0.45085596  0.64196979     0.09680
H1686       H  0.95260940  0.39177731  0.70095213     0.07210
H1687       H  0.98601130  0.45115118  0.75251099     0.07060
C1688       C  0.00295822  0.61772557  0.60055946     0.04090
C1689       C  0.01137405  0.60734824  0.63179374    -0.12060
C1690       C  0.03271220  0.58844678  0.63191041     0.01590
C1691       C  0.04455396  0.57923983  0.79917635    -0.10580
C1692       C  0.03401207  0.58844280  0.76688405     0.04090
C1693       C  0.01304254  0.60749728  0.76854788    -0.10000
H1694       H  0.99815267  0.61318869  0.65668813     0.09680
H1695       H  0.06330660  0.56518998  0.79879808     0.07210
H1696       H  0.00550251  0.61484570  0.74459144     0.07060
C1697       C  0.55653065  0.51149961  0.68466004    -0.04820
C1698       C  0.01153713  0.52070509  0.70118474     0.01110
C1699       C  0.95695022  0.50804152  0.71504176    -0.07460
C1700       C  0.94912219  0.48597287  0.71252757    -0.04840
C1701       C  0.99362335  0.47635580  0.69653315     0.01100
C1702       C  0.55005971  0.48946319  0.68226511    -0.07370
C1703       C  0.60111213  0.48020663  0.66566231     0.63010
H1704       H  0.59706401  0.52181260  0.67383415     0.13700
H1705       H  0.90807670  0.47592743  0.72326078     0.13710
C1706       C  0.90679790  0.51771033  0.73180809     0.63240
F1707       F  0.64535797  0.49457572  0.85740803    -0.21920
F1708       F  0.58598278  0.47071409  0.63484488    -0.19250
F1709       F  0.61454152  0.46539302  0.68828861    -0.18930
F1710       F  0.89426106  0.53277413  0.70931938    -0.18980
F1711       F  0.92264143  0.52702130  0.76264668    -0.19310
F1712       F  0.85673068  0.50144529  0.53787922    -0.21980
C1713       C  0.70437395  0.01063282  0.69290171    -0.04820
C1714       C  0.76012616  0.02115255  0.70147741     0.01110
C1715       C  0.80319432  0.00935756  0.70921652    -0.07460
C1716       C  0.78849838  0.98719005  0.70843478    -0.04840
C1717       C  0.73276477  0.97667039  0.69984898     0.01100
C1718       C  0.68974015  0.98846429  0.69200361    -0.07370
C1719       C  0.62840568  0.97768668  0.68339729     0.63010
H1720       H  0.67238175  0.02002440  0.68681489     0.13700
H1721       H  0.82054284  0.97780236  0.71444378     0.13710
C1722       C  0.86473491  0.02014166  0.71743376     0.63240
F1723       F  0.59181123  0.99201463  0.67978332    -0.21920
F1724       F  0.60225914  0.96327922  0.70987306    -0.19250
F1725       F  0.63247995  0.96728949  0.65232861    -0.18930
F1726       F  0.86115785  0.03070869  0.74835937    -0.18980
F1727       F  0.89061230  0.03440140  0.69069359    -0.19310
F1728       F  0.90128582  0.00580022  0.72106032    -0.21940
C1729       C  0.75784576  0.11889778  0.79978587     0.04090
C1730       C  0.75387174  0.10548710  0.96834703    -0.12060
C1731       C  0.78098621  0.08792506  0.96632029     0.01590
C1732       C  0.79616795  0.07967208  0.99819882    -0.10580
C1733       C  0.78398898  0.08897979  0.83121073     0.04090
C1734       C  0.76393101  0.10816369  0.83105752    -0.10000
H1735       H  0.73838180  0.11121400  0.94501180     0.09680
H1736       H  0.81757421  0.06621794  0.99725553     0.07210
H1737       H  0.75018191  0.11436921  0.85569211     0.07060
C1738       C  0.72780601  0.95359918  0.89940873     0.04090
C1739       C  0.72557258  0.94261662  0.86823183    -0.12060
C1740       C  0.71581565  0.92048570  0.86837837     0.01590
C1741       C  0.70965503  0.90959278  0.90161477    -0.10580
C1742       C  0.71537447  0.92062780  0.93364703     0.04090
C1743       C  0.72379961  0.94273802  0.93158648    -0.10000
H1744       H  0.73394282  0.95162407  0.84374955     0.09680
H1745       H  0.70090870  0.89252658  0.90252098     0.07210
H1746       H  0.72982500  0.95189123  0.95485101     0.07060
C1747       C  0.77761948  0.04451065  0.89946363     0.04090
C1748       C  0.78033568  0.05561645  0.86760802    -0.12060
C1749       C  0.78722545  0.07771760  0.86605133     0.01590
C1750       C  0.79213563  0.08841527  0.89845620    -0.10580
C1751       C  0.78647038  0.07722442  0.93141397     0.04090
C1752       C  0.77914980  0.05517339  0.93096553    -0.10000
H1753       H  0.77448186  0.04656674  0.84425049     0.09680
H1754       H  0.79976282  0.10545790  0.89821874     0.07210
H1755       H  0.77156279  0.04596643  0.95525079     0.07060
C1756       C  0.75020827  0.88106022  0.00027127     0.04090
C1757       C  0.74089973  0.89078645  0.83157701    -0.12060
C1758       C  0.71796276  0.90932454  0.83372012     0.01590
C1759       C  0.70471859  0.91841834  0.00155992    -0.10580
C1760       C  0.71859450  0.90965076  0.96859684     0.04090
C1761       C  0.74205870  0.89119924  0.96891883    -0.10000
H1762       H  0.75675640  0.88497502  0.85466758     0.09680
H1763       H  0.68605900  0.93249863  0.00213759     0.07210
H1764       H  0.75733948  0.88526642  0.94432311     0.07060
C1765       C  0.77767590  0.86182039  0.99863342     0.04090
C1766       C  0.76953753  0.84784184  0.82967710    -0.12060
C1767       C  0.80071008  0.83118297  0.82979897     0.01590
C1768       C  0.84589462  0.83080042  0.98920845    -0.10580
C1769       C  0.80285514  0.83186845  0.96675554     0.04090
C1770       C  0.77080556  0.84824056  0.97002903    -0.10000
H1771       H  0.73953364  0.84970653  0.85218047     0.09680
H1772       H  0.87146922  0.81843183  0.98605695     0.07210
H1773       H  0.73897274  0.84964246  0.95154305     0.07060
O1774       O  0.73430366  0.80966192  0.93395154    -0.56850
C1775       C  0.64288578  0.75145603  0.90600256     0.75780
O1776       O  0.80936056  0.79748162  0.85208500    -0.58010
C1777       C  0.78384176  0.81318607  0.94652903     0.75750
C1778       C  0.84579046  0.75413725  0.90264983     0.78140
Cd1779     Cd  0.75629450  0.77921123  0.90277408     1.37470
O1780       O  0.66600292  0.75773608  0.93364564    -0.56850
O1781       O  0.82014591  0.75915603  0.93098984    -0.55660
C1782       C  0.78251111  0.81286138  0.85378240     0.78100
O1783       O  0.82905433  0.76025898  0.87437829    -0.58030
O1784       O  0.67245723  0.75776761  0.87720193    -0.56480
O1785       O  0.81525369  0.79920724  0.94261643    -0.56470
O1786       O  0.73767672  0.81112511  0.87566081    -0.55640
C1787       C  0.47085751  0.63644707  0.80183316     0.04090
C1788       C  0.46174727  0.64682747  0.83353529    -0.12060
C1789       C  0.43233472  0.66388224  0.83437796     0.01590
C1790       C  0.40581645  0.66878831  0.80543231    -0.10580
C1791       C  0.41132404  0.66013777  0.98019720     0.04090
C1792       C  0.43739704  0.64228386  0.97604609    -0.10000
H1793       H  0.48126384  0.64329054  0.85680627     0.09680
H1794       H  0.38186481  0.68166195  0.80676287     0.07210
H1795       H  0.43617687  0.63468720  0.95117345     0.07060
O1796       O  0.47563211  0.67933027  0.93475507    -0.56850
C1797       C  0.58419147  0.73776771  0.90700097     0.75780
O1798       O  0.93454496  0.69902627  0.85580017    -0.58010
C1799       C  0.94730821  0.68175111  0.94946714     0.75750
C1800       C  0.89269655  0.74175753  0.90256376     0.78140
Cd1801     Cd  0.46774651  0.71205633  0.90742895     1.37460
O1802       O  0.55360958  0.73144025  0.93553253    -0.56850
O1803       O  0.90963660  0.73570928  0.93082639    -0.55660
C1804       C  0.44548290  0.68066473  0.85907553     0.78100
O1805       O  0.91797874  0.73660281  0.87421019    -0.58030
O1806       O  0.56143352  0.73195845  0.87909132    -0.56480
O1807       O  0.91847076  0.69657090  0.94947687    -0.56470
O1808       O  0.49020600  0.68230927  0.87623692    -0.55640
O1809       O  0.03384740  0.31548305  0.93756375    -0.56850
C1810       C  0.93874377  0.25905657  0.90642334     0.75780
O1811       O  0.61334086  0.30760183  0.84949305    -0.58010
C1812       C  0.58710544  0.32255394  0.94720837     0.75750
C1813       C  0.64089568  0.26158211  0.90362230     0.78140
Cd1814     Cd  0.05362336  0.28646915  0.90365952     1.37470
O1815       O  0.96129882  0.26530861  0.93427731    -0.56850
O1816       O  0.61486631  0.26713890  0.93141127    -0.55660
C1817       C  0.07077639  0.31873182  0.85277681     0.78100
O1818       O  0.62917247  0.26885272  0.87481360    -0.58030
O1819       O  0.96919163  0.26527717  0.87787954    -0.56480
O1820       O  0.62377081  0.31063982  0.94013676    -0.56470
O1821       O  0.03053352  0.31755707  0.87754041    -0.55640
C1822       C  0.03460326  0.36160800  0.79720026     0.04090
C1823       C  0.04802048  0.35187187  0.82799913    -0.12060
C1824       C  0.07934796  0.33527974  0.82559365     0.01590
C1825       C  0.10363099  0.33037187  0.79340012    -0.10580
C1826       C  0.09786645  0.33740862  0.97204055     0.04090
C1827       C  0.07251579  0.35540395  0.96884866    -0.10000
H1828       H  0.03100028  0.35557715  0.85370256     0.09680
H1829       H  0.12915026  0.31793915  0.79183497     0.07210
H1830       H  0.07619972  0.36324609  0.94350815     0.07060
O1831       O  0.84830000  0.23914660  0.93496773    -0.56850
C1832       C  0.72155437  0.18441952  0.95022539     0.75780
O1833       O  0.70832222  0.24177500  0.87670592    -0.58010
C1834       C  0.87997746  0.24540168  0.90676495     0.75750
C1835       C  0.73930868  0.18781530  0.85701073     0.78140
Cd1836     Cd  0.76427754  0.21946558  0.90576895     1.37460
O1837       O  0.77322404  0.18726355  0.93481042    -0.56850
O1838       O  0.78172191  0.18777607  0.87553018    -0.55660
C1839       C  0.68299655  0.24741910  0.90463389     0.78100
O1840       O  0.71573744  0.20397438  0.85813333    -0.58030
O1841       O  0.69427923  0.19961966  0.94930150    -0.56480
O1842       O  0.85845940  0.23945794  0.87853519    -0.56470
O1843       O  0.69580982  0.24034369  0.93333196    -0.55640
C1844       C  0.71287771  0.13361096  0.99997337     0.04090
C1845       C  0.74503231  0.15252864  0.83093326    -0.12060
C1846       C  0.71962681  0.17060878  0.83372368     0.01590
C1847       C  0.68192435  0.17441177  0.80941517    -0.10580
C1848       C  0.69556461  0.16478204  0.96975660     0.04090
C1849       C  0.72702720  0.14842648  0.97183307    -0.10000
H1850       H  0.77289554  0.14927591  0.85066493     0.09680
H1851       H  0.66114411  0.18805221  0.81208372     0.07210
H1852       H  0.76438172  0.14796513  0.95289986     0.07060
C1853       C  0.00668458  0.38090090  0.79798786     0.04090
C1854       C  0.99510428  0.39073247  0.82972168    -0.12060
C1855       C  0.97063953  0.40897759  0.83140073     0.01590
C1856       C  0.95771942  0.41765774  0.79928113    -0.10580
C1857       C  0.97650351  0.40878482  0.96579975     0.04090
C1858       C  0.99899049  0.39000031  0.96585446    -0.10000
H1859       H  0.00868489  0.38508964  0.85342205     0.09680
H1860       H  0.93754534  0.43139258  0.79972317     0.07210
H1861       H  0.00785955  0.38268924  0.94139412     0.07060
C1862       C  0.01940191  0.54381641  0.90112239     0.04090
C1863       C  0.02273348  0.55473255  0.86906131    -0.12060
C1864       C  0.03339625  0.57685350  0.86697076     0.01590
C1865       C  0.04081393  0.58788414  0.89885314    -0.10580
C1866       C  0.03552128  0.57703937  0.93211268     0.04090
C1867       C  0.02660480  0.55486735  0.93211311    -0.10000
H1868       H  0.01472583  0.54566211  0.84585677     0.09680
H1869       H  0.05056821  0.60494095  0.89763391     0.07210
H1870       H  0.02314772  0.54585585  0.95633281     0.07060
C1871       C  0.98065094  0.45294150  0.89762270     0.04090
C1872       C  0.97302326  0.44199193  0.86660180    -0.12060
C1873       C  0.96639260  0.41991420  0.86627822     0.01590
C1874       C  0.96304837  0.40893243  0.89930236    -0.10580
C1875       C  0.97102655  0.41982043  0.93123475     0.04090
C1876       C  0.97984099  0.44196427  0.92938583    -0.10000
H1877       H  0.97498647  0.45103928  0.84254230     0.09680
H1878       H  0.95457019  0.39188505  0.90015575     0.07210
H1879       H  0.98866922  0.45107413  0.95244870     0.07060
C1880       C  0.99909709  0.61660465  0.80067454     0.04090
C1881       C  0.00708696  0.60638300  0.83195990    -0.12060
C1882       C  0.03048317  0.58793609  0.83213905     0.01590
C1883       C  0.04430726  0.57924717  0.99898042    -0.10580
C1884       C  0.03254246  0.58824993  0.96686799     0.04090
C1885       C  0.01135154  0.60721904  0.96850243    -0.10000
H1886       H  0.99171792  0.61220430  0.85663346     0.09680
H1887       H  0.06326858  0.56524400  0.99839916     0.07210
H1888       H  0.00074600  0.61366982  0.94459998     0.07060
C1889       C  0.55206171  0.51111397  0.88538633    -0.04820
C1890       C  0.00850942  0.52048785  0.90166876     0.01110
C1891       C  0.95411363  0.50779949  0.91573213    -0.07460
C1892       C  0.94664129  0.48574967  0.91341027    -0.04840
C1893       C  0.99117601  0.47626441  0.89718510     0.01100
C1894       C  0.54432482  0.48907556  0.88277308    -0.07370
C1895       C  0.59424445  0.47949384  0.86548645     0.63010
H1896       H  0.59289222  0.52120382  0.87444184     0.13700
H1897       H  0.90584785  0.47563401  0.92434647     0.13710
C1898       C  0.90376298  0.51741638  0.93236688     0.63240
F1899       F  0.65420410  0.49619396  0.06028957    -0.21920
F1900       F  0.57768660  0.47022428  0.83474434    -0.19250
F1901       F  0.60748635  0.46442345  0.88768318    -0.18930
F1902       F  0.89087717  0.53230031  0.90966249    -0.18980
F1903       F  0.91952728  0.52693388  0.96306007    -0.19310
F1904       F  0.85546335  0.50268586  0.73956758    -0.21980
C1905       C  0.71086988  0.01062310  0.89092500    -0.04820
C1906       C  0.76623955  0.02121644  0.89989336     0.01110
C1907       C  0.80951897  0.00962036  0.90797693    -0.07460
C1908       C  0.79526085  0.98748394  0.90721391    -0.04840
C1909       C  0.73979294  0.97689429  0.89837548     0.01100
C1910       C  0.69668743  0.98850072  0.89003229    -0.07370
C1911       C  0.63574797  0.97759052  0.88094547     0.63010
H1912       H  0.67876622  0.01992369  0.88464124     0.13700
H1913       H  0.82732102  0.97817718  0.91354877     0.13710
C1914       C  0.87069226  0.02055877  0.91661254     0.63240
F1915       F  0.59892667  0.99180847  0.87705526    -0.21920
F1916       F  0.60929302  0.96309934  0.90723529    -0.19250
F1917       F  0.64072521  0.96727440  0.84985613    -0.18930
F1918       F  0.86635499  0.03097420  0.94764322    -0.18980
F1919       F  0.89663249  0.03497540  0.89010631    -0.19310
F1920       F  0.90761741  0.00635037  0.92029461    -0.21940
loop_ 
_geom_bond_atom_site_label_1 
_geom_bond_atom_site_label_2 
_geom_bond_distance 
_geom_bond_site_symmetry_2 
_ccdc_geom_bond_type 
C1            C6   1.409   1_556  A
C1          C770   1.404       .  A
C1          C884   1.491       .  S
C2            C3   1.409       .  A
C2          C193   1.412       .  A
C2            H7   1.077       .  S
C3            C4   1.430       .  A
C3           C23   1.532       .  S
C4          C197   1.430       .  A
C4            H8   1.079       .  S
C5            C6   1.409       .  A
C5          C772   1.433   1_554  A
C5           C21   1.529       .  S
C6            H9   1.079       .  S
C10          C11   1.402       .  A
C10          C15   1.404       .  A
C10         C181   1.483       .  S
C11          C12   1.404       .  A
C11          H16   1.082       .  S
C12          C13   1.433       .  A
C12          C30   1.526       .  S
C13          C14   1.433       .  A
C13          H17   1.080       .  S
C14          C15   1.408       .  A
C14          C32   1.533       .  S
C15          H18   1.082       .  S
C19          C20   1.402       .  A
C19          C24   1.402       .  A
C19         C178   1.484       .  S
C20          C21   1.406       .  A
C20          H25   1.082       .  S
C21          C22   1.434       .  A
C22          C23   1.434       .  A
C22          H26   1.079       .  S
C23          C24   1.409       .  A
C24          H27   1.081       .  S
C28          C33   1.415       .  A
C28         C221   1.413       .  A
C28          C37   1.512       .  S
C29          C30   1.404       .  A
C29         C796   1.413       .  A
C29          H34   1.076       .  S
C30         C799   1.428       .  A
C31          C32   1.429       .  A
C31         C222   1.429       .  A
C31          H35   1.080       .  S
C32          C33   1.409       .  A
C33          H36   1.072       .  S
C37          C42   1.418       .  A
C37         C230   1.419       .  A
C38          C39   1.408       .  A
C38         C805   1.419   1_554  A
C38          H43   1.079       .  S
C39         C808   1.379   1_554  A
C39          C54   1.459       .  S
C40          C41   1.375       .  A
C40         C231   1.381       .  A
C40          H44   1.085       .  S
C41          C42   1.405       .  A
C41          C49   1.454       .  S
C42          H45   1.078       .  S
O46          C49   1.263       .  A
O46         Cd51   2.403       .  S
C47          C69   1.467       .  S
C47          O56   1.266       .  A
C47          O52   1.267       .  A
O48          C54   1.271       .  A
O48         Cd51   2.380       .  S
C49          O57   1.268       .  A
C50          C72   1.467       .  S
C50          O55   1.270       .  A
C50          O53   1.270       .  A
Cd51         O58   2.409       .  S
Cd51         O57   2.403       .  S
Cd51         O56   2.452       .  S
Cd51         O52   2.475       .  S
Cd51         O55   2.446       .  S
Cd51         O53   2.449       .  S
C54          O58   1.261       .  A
C59          C60   1.417       .  A
C59         C832   1.421   1_554  A
C59        C1112   1.513   1_655  S
C60          C61   1.405       .  A
C60          H65   1.081       .  S
C61          C62   1.381       .  A
C61          C76   1.457       .  S
C62         C831   1.376   1_554  A
C62          H66   1.085       .  S
C63          C64   1.405       .  A
C63         C254   1.375       .  A
C63        C1031   1.458       .  S
C64         C251   1.418       .  A
C64          H67   1.077       .  S
O68        C1031   1.262       .  A
O68         Cd73   2.393       .  S
C69          O78   1.266       .  A
C69          O74   1.267       .  A
O70        C1036   1.269       .  A
O70       Cd1033   2.364       .  S
C71        C1023   1.459       .  S
C71          O79   1.270       .  A
C71        O1028   1.262       .  A
C72          O77   1.269       .  A
C72          O75   1.269       .  A
Cd73         O80   2.413   1_655  S
Cd73         O78   2.447   1_655  S
Cd73         O74   2.471   1_655  S
Cd73       O1030   2.363       .  S
Cd73       O1039   2.406       .  S
Cd73       O1037   2.432       .  S
Cd73       O1035   2.442       .  S
O75       Cd1033   2.455       .  S
C76          O80   1.263   1_655  A
C76        O1030   1.268       .  A
O77       Cd1033   2.452       .  S
O79       Cd1033   2.383       .  S
O81        C1044   1.261       .  A
O81         Cd86   2.470       .  S
C82         C106   1.468       .  S
C82          O91   1.267       .  A
C82          O87   1.265       .  A
O83        C1049   1.267       .  A
O83       Cd1046   2.398   1_455  S
C84        C1058   1.466       .  S
C84          O92   1.270       .  A
C84        O1041   1.261       .  A
C85         C111   1.468       .  S
C85          O90   1.269       .  A
C85          O88   1.267       .  A
Cd86         O93   2.427       .  S
Cd86         O91   2.478       .  S
Cd86         O87   2.442       .  S
Cd86       O1043   2.384       .  S
Cd86       O1052   2.351       .  S
Cd86       O1050   2.475       .  S
Cd86       O1048   2.456       .  S
O88       Cd1046   2.454   1_455  S
C89          C96   1.461       .  S
C89          O93   1.264       .  A
C89        O1043   1.268       .  A
O90       Cd1046   2.474   1_455  S
O92       Cd1046   2.336       .  S
C94          C95   1.411   1_556  A
C94         C867   1.411       .  A
C94         C125   1.492       .  S
C95          C96   1.404       .  A
C95         H100   1.084       .  S
C96          C97   1.388       .  A
C97         C866   1.381   1_554  A
C97         H101   1.086       .  S
C98          C99   1.410       .  A
C98         C289   1.383       .  A
C98        C1044   1.467       .  S
C99         C286   1.420       .  A
C99         H102   1.083       .  S
O103        C106   1.265       .  A
O103       Cd108   2.461       .  S
C104        C120   1.455       .  S
C104        O113   1.271       .  A
C104        O109   1.258       .  A
O105        C111   1.269       .  A
O105       Cd108   2.461       .  S
C106        O114   1.266       .  A
C107        C118   1.448       .  S
C107        O112   1.267       .  A
C107        O110   1.263       .  A
Cd108       O115   2.448       .  S
Cd108       O114   2.492       .  S
Cd108       O113   2.418       .  S
Cd108       O109   2.401       .  S
Cd108       O112   2.445       .  S
Cd108       O110   2.368       .  S
C111        O115   1.269       .  A
C116        C121   1.415       .  A
C116        C309   1.416       .  A
C116        C193   1.501       .  S
C117        C118   1.407       .  A
C117        C884   1.412   1_554  A
C117        H122   1.082       .  S
C118        C119   1.381   1_554  A
C119        C888   1.388       .  A
C119        H123   1.086       .  S
C120        C121   1.406       .  A
C120        C311   1.378       .  A
C121        H124   1.081       .  S
C125        C126   1.404   1_556  A
C125        C898   1.409       .  A
C126        C127   1.401       .  A
C126        H131   1.082       .  S
C127        C128   1.427   1_554  A
C127        C145   1.522       .  S
C128        C897   1.431       .  A
C128        H132   1.080       .  S
C129        C130   1.406       .  A
C129        C320   1.429       .  A
C129        C147   1.527       .  S
C130        C317   1.407       .  A
C130        H133   1.080       .  S
C134        C135   1.400       .  A
C134        C139   1.401       .  A
C134        C162   1.478       .  S
C135        C136   1.403       .  A
C135        H140   1.082       .  S
C136        C137   1.433       .  A
C136        C154   1.525       .  S
C137        C138   1.433       .  A
C137        H141   1.080       .  S
C138        C139   1.406       .  A
C138        C156   1.530       .  S
C139        H142   1.080       .  S
C143        C144   1.401       .  A
C143        C148   1.402       .  A
C143        C165   1.478       .  S
C144        C145   1.404       .  A
C144        H149   1.081       .  S
C145        C146   1.431       .  A
C146        C147   1.430       .  A
C146        H150   1.080       .  S
C147        C148   1.406       .  A
C148        H151   1.082       .  S
C152        C153   1.408       .  A
C152        C925   1.412   1_554  A
C152       C1019   1.499       .  S
C153        C154   1.403       .  A
C153        H158   1.081       .  S
C154        C923   1.429   1_554  A
C155        C156   1.428       .  A
C155        C346   1.426       .  A
C155        H159   1.079       .  S
C156        C157   1.408       .  A
C157        C344   1.415       .  A
C157        H160   1.076       .  S
C161        C166   1.406       .  A
C161       C1122   1.402       .  A
C161        H168   1.083       .  S
C162        C163   1.417       .  A
C162       C1121   1.403       .  A
C163        C164   1.405       .  A
C163        C170   1.520       .  S
C164        C165   1.402       .  A
C164        H169   1.083       .  S
C165       C1126   1.417       .  A
C166       C1125   1.417       .  A
C166        C167   1.519       .  S
C167        F172   1.381       .  S
C167        F173   1.383       .  S
C167        F939   1.385       .  S
C170        F174   1.383       .  S
C170        F175   1.381       .  S
C170        F368   1.385       .  S
F171        C359   1.385       .  S
F176        C938   1.385       .  S
C177        C178   1.403       .  A
C177        C182   1.407   1_545  A
C177        H184   1.083       .  S
C178        C179   1.417       .  A
C179        C180   1.408   1_545  A
C179        C186   1.518       .  S
C180        C181   1.404       .  A
C180        H185   1.083       .  S
C181        C182   1.417       .  A
C182        C183   1.519       .  S
C183        F187   1.385       .  S
C183        F188   1.383       .  S
C183        F189   1.382       .  S
C186        F190   1.382       .  S
C186        F191   1.383       .  S
C186        F192   1.385       .  S
C193        C198   1.409       .  A
C194        C385   1.407       .  A
C194        C195   1.401       .  A
C194        H199   1.081       .  S
C195        C196   1.428       .  A
C195        C215   1.523       .  S
C196        C389   1.431       .  A
C196        H200   1.081       .  S
C197        C198   1.406       .  A
C197        C213   1.529       .  S
C198        H201   1.081       .  S
C202        C203   1.400       .  A
C202        C207   1.401       .  A
C202        C373   1.476       .  S
C203        C204   1.404       .  A
C203        H208   1.082       .  S
C204        C205   1.434       .  A
C204        C222   1.527       .  S
C205        C206   1.434       .  A
C205        H209   1.081       .  S
C206        C207   1.403       .  A
C206        C224   1.526       .  S
C207        H210   1.082       .  S
C211        C212   1.402       .  A
C211        C216   1.400       .  A
C211        C370   1.477       .  S
C212        C213   1.406       .  A
C212        H217   1.082       .  S
C213        C214   1.433       .  A
C214        C215   1.433       .  A
C214        H218   1.080       .  S
C215        C216   1.402       .  A
C216        H219   1.082       .  S
C220        C413   1.411       .  A
C220        C225   1.411       .  A
C220        C229   1.502       .  S
C221        C222   1.404       .  A
C221        H226   1.078       .  S
C223        C414   1.430       .  A
C223        C224   1.429       .  A
C223        H227   1.081       .  S
C224        C225   1.403       .  A
C225        H228   1.080       .  S
C229        C422   1.417       .  A
C229        C234   1.413       .  A
C230        C231   1.408       .  A
C230        H235   1.081       .  S
C231        C246   1.460       .  S
C232        C423   1.379       .  A
C232        C233   1.384       .  A
C232        H236   1.086       .  S
C233        C234   1.404       .  A
C233        C241   1.454       .  S
C234        H237   1.083       .  S
O238        C241   1.265       .  A
O238       Cd243   2.410       .  S
C239        C261   1.463       .  S
C239        O248   1.266       .  A
C239        O244   1.268       .  A
O240        C246   1.271       .  A
O240       Cd243   2.368       .  S
C241        O249   1.266       .  A
C242        C264   1.464       .  S
C242        O247   1.269       .  A
C242        O245   1.269       .  A
Cd243       O250   2.425       .  S
Cd243       O249   2.371       .  S
Cd243       O248   2.434       .  S
Cd243       O244   2.462       .  S
Cd243       O247   2.442       .  S
Cd243       O245   2.450       .  S
C246        O250   1.261       .  A
C251        C252   1.418       .  A
C251       C1304   1.511       .  S
C252        C253   1.406       .  A
C252        H257   1.081       .  S
C253        C254   1.382       .  A
C253        C268   1.457       .  S
C254        H258   1.085       .  S
C255        C446   1.378       .  A
C255        C256   1.407       .  A
C255       C1223   1.459       .  S
C256        C443   1.417       .  A
C256        H259   1.079       .  S
O260       C1223   1.262       .  A
O260       Cd265   2.400       .  S
C261        O270   1.265       .  A
C261        O266   1.267       .  A
O262       C1228   1.269       .  A
O262      Cd1225   2.375       .  S
C263       C1215   1.459       .  S
C263       O1220   1.262       .  A
C263        O271   1.270       .  A
C264        O269   1.269       .  A
C264        O267   1.270       .  A
Cd265      O1222   2.353       .  S
Cd265       O272   2.415       .  S
Cd265      O1231   2.427       .  S
Cd265       O270   2.442   1_655  S
Cd265       O266   2.475   1_655  S
Cd265      O1229   2.439       .  S
Cd265      O1227   2.451       .  S
O267      Cd1225   2.448       .  S
C268       O1222   1.269       .  A
C268        O272   1.262       .  A
O269      Cd1225   2.437       .  S
O271      Cd1225   2.418       .  S
O273       C1236   1.268       .  A
O273       Cd278   2.350       .  S
C274        C298   1.466       .  S
C274        O283   1.264       .  A
C274        O279   1.267       .  A
O275       C1241   1.269       .  A
O275      Cd1238   2.368       .  S
C276       C1250   1.450       .  S
C276       O1233   1.269       .  A
C276        O284   1.263       .  A
C277        C303   1.464       .  S
C277        O282   1.266       .  A
C277        O280   1.269       .  A
Cd278      O1235   2.386       .  S
Cd278       O285   2.403       .  S
Cd278      O1244   2.449       .  S
Cd278       O283   2.452       .  S
Cd278       O279   2.489       .  S
Cd278      O1242   2.428       .  S
Cd278      O1240   2.461       .  S
O280      Cd1238   2.463       .  S
C281        C288   1.450       .  S
C281       O1235   1.270       .  A
C281        O285   1.260       .  A
O282      Cd1238   2.431       .  S
O284      Cd1238   2.455       .  S
C286        C287   1.414       .  A
C286        C317   1.502       .  S
C287        C288   1.401       .  A
C287        H292   1.081       .  S
C288        C289   1.376       .  A
C289        H293   1.085       .  S
C290        C481   1.382       .  A
C290        C291   1.406       .  A
C290       C1236   1.447       .  S
C291        C478   1.412       .  A
C291        H294   1.082       .  S
O295        C298   1.266       .  A
O295       Cd300   2.468       .  S
C296        C312   1.457       .  S
C296        O305   1.267       .  A
C296        O301   1.264       .  A
O297        C303   1.268       .  A
O297       Cd300   2.441       .  S
C298        O306   1.266       .  A
C299        C310   1.464       .  S
C299        O304   1.270       .  A
C299        O302   1.261       .  A
Cd300       O307   2.461       .  S
Cd300       O306   2.440       .  S
Cd300       O305   2.380       .  S
Cd300       O301   2.410       .  S
Cd300       O304   2.358       .  S
Cd300       O302   2.452       .  S
C303        O307   1.269       .  A
C308        C501   1.414       .  A
C308        C313   1.410       .  A
C308        C385   1.496       .  S
C309        C310   1.407       .  A
C309        H314   1.083       .  S
C310        C311   1.384       .  A
C311        H315   1.085       .  S
C312        C503   1.385       .  A
C312        C313   1.402       .  A
C313        H316   1.083       .  S
C317        C318   1.413       .  A
C318        C319   1.411       .  A
C318        H323   1.074       .  S
C319        C320   1.431       .  A
C319        C337   1.539       .  S
C320        H324   1.077       .  S
C321        C512   1.432       .  A
C321        C322   1.410       .  A
C321        C339   1.528       .  S
C322        C509   1.409       .  A
C322        H325   1.079       .  S
C326        C327   1.403       .  A
C326        C331   1.404       .  A
C326        C354   1.485       .  S
C327        C328   1.405       .  A
C327        H332   1.082       .  S
C328        C329   1.432       .  A
C328        C346   1.528       .  S
C329        C330   1.432       .  A
C329        H333   1.079       .  S
C330        C331   1.408       .  A
C330        C348   1.530       .  S
C331        H334   1.080       .  S
C335        C336   1.403       .  A
C335        C340   1.400       .  A
C335        C357   1.485       .  S
C336        C337   1.412       .  A
C336        H341   1.078       .  S
C337        C338   1.436       .  A
C338        C339   1.432       .  A
C338        H342   1.077       .  S
C339        C340   1.405       .  A
C340        H343   1.082       .  S
C344        C345   1.415       .  A
C344       C1211   1.515       .  S
C345        C346   1.405       .  A
C345        H350   1.072       .  S
C347        C538   1.429       .  A
C347        C348   1.430       .  A
C347        H351   1.080       .  S
C348        C349   1.409       .  A
C349        C536   1.411       .  A
C349        H352   1.074       .  S
C353       C1314   1.404       .  A
C353        C358   1.407       .  A
C353        H360   1.083       .  S
C354       C1313   1.403       .  A
C354        C355   1.418       .  A
C355        C356   1.408       .  A
C355        C362   1.520       .  S
C356        C357   1.404       .  A
C356        H361   1.083       .  S
C357       C1318   1.418       .  A
C358       C1317   1.417   1_455  A
C358        C359   1.519       .  S
C359        F364   1.382       .  S
C359        F365   1.383       .  S
C362        F366   1.383       .  S
C362        F367   1.381       .  S
C362        F560   1.385       .  S
F363        C551   1.385       .  S
C369        C370   1.403       .  A
C369        C374   1.404   1_545  A
C369        H376   1.083       .  S
C370        C371   1.415       .  A
C371        C372   1.405   1_545  A
C371        C378   1.519       .  S
C372        C373   1.402       .  A
C372        H377   1.083       .  S
C373        C374   1.415       .  A
C374        C375   1.519       .  S
C375        F379   1.385       .  S
C375        F380   1.383       .  S
C375        F381   1.382       .  S
C378        F382   1.382       .  S
C378        F383   1.383       .  S
C378        F384   1.385       .  S
C385        C390   1.409       .  A
C386        C577   1.408       .  A
C386        C387   1.407       .  A
C386        H391   1.077       .  S
C387        C388   1.431       .  A
C387        C407   1.526       .  S
C388        C581   1.429       .  A
C388        H392   1.081       .  S
C389        C390   1.409       .  A
C389        C405   1.527       .  S
C390        H393   1.078       .  S
C394        C395   1.401       .  A
C394        C399   1.403       .  A
C394        C565   1.480       .  S
C395        C396   1.405       .  A
C395        H400   1.082       .  S
C396        C397   1.433       .  A
C396        C414   1.528       .  S
C397        C398   1.436       .  A
C397        H401   1.079       .  S
C398        C399   1.406       .  A
C398        C416   1.533       .  S
C399        H402   1.082       .  S
C403        C404   1.402       .  A
C403        C408   1.401       .  A
C403        C562   1.481       .  S
C404        C405   1.405       .  A
C404        H409   1.082       .  S
C405        C406   1.432       .  A
C406        C407   1.432       .  A
C406        H410   1.080       .  S
C407        C408   1.405       .  A
C408        H411   1.082       .  S
C412        C605   1.412       .  A
C412        C417   1.415       .  A
C412        C421   1.512       .  S
C413        C414   1.407       .  A
C413        H418   1.076       .  S
C415        C606   1.429       .  A
C415        C416   1.429       .  A
C415        H419   1.080       .  S
C416        C417   1.406       .  A
C417        H420   1.069       .  S
C421        C614   1.420       .  A
C421        C426   1.418       .  A
C422        C423   1.408       .  A
C422        H427   1.079       .  S
C423        C438   1.461       .  S
C424        C615   1.380       .  A
C424        C425   1.374       .  A
C424        H428   1.085       .  S
C425        C426   1.402       .  A
C425        C433   1.453       .  S
C426        H429   1.075       .  S
O430        C433   1.263       .  A
O430       Cd435   2.393       .  S
C431        C453   1.467       .  S
C431        O440   1.267       .  A
C431        O436   1.266       .  A
O432        C438   1.270       .  A
O432       Cd435   2.420       .  S
C433        O441   1.269       .  A
C434        C456   1.462       .  S
C434        O439   1.270       .  A
C434        O437   1.269       .  A
Cd435       O442   2.399       .  S
Cd435       O441   2.383       .  S
Cd435       O440   2.473       .  S
Cd435       O436   2.457       .  S
Cd435       O439   2.439       .  S
Cd435       O437   2.437       .  S
C438        O442   1.262       .  A
C443        C444   1.415       .  A
C443       C1496   1.501       .  S
C444        C445   1.405       .  A
C444        H449   1.083   1_655  S
C445        C446   1.387       .  A
C445        C460   1.460       .  S
C446        H450   1.086       .  S
C447        C638   1.377       .  A
C447        C448   1.408       .  A
C447       C1415   1.459       .  S
C448        C635   1.420       .  A
C448        H451   1.079       .  S
O452       C1415   1.261   1_455  A
O452       Cd457   2.417   1_455  S
C453        O462   1.267       .  A
C453        O458   1.266       .  A
O454       C1420   1.268       .  A
O454      Cd1417   2.358       .  S
C455       C1407   1.459       .  S
C455       O1412   1.261       .  A
C455        O463   1.270       .  A
C456        O461   1.269       .  A
C456        O459   1.270       .  A
Cd457      O1414   2.364       .  S
Cd457       O464   2.426   1_655  S
Cd457      O1423   2.390       .  S
Cd457       O462   2.468   1_655  S
Cd457       O458   2.455   1_655  S
Cd457      O1421   2.448       .  S
Cd457      O1419   2.452       .  S
O459      Cd1417   2.442       .  S
C460       O1414   1.269       .  A
C460        O464   1.263   1_655  A
O461      Cd1417   2.437       .  S
O463      Cd1417   2.418       .  S
O465       C1428   1.263       .  A
O465       Cd470   2.460       .  S
C466        C490   1.470       .  S
C466        O475   1.267       .  A
C466        O471   1.266       .  A
O467       C1433   1.269       .  A
O467      Cd1430   2.401   1_455  S
C468       C1442   1.466   1_655  S
C468       O1425   1.262       .  A
C468        O476   1.269   1_655  A
C469        C495   1.469       .  S
C469        O474   1.269       .  A
C469        O472   1.268       .  A
Cd470      O1427   2.385       .  S
Cd470       O477   2.434       .  S
Cd470      O1436   2.357       .  S
Cd470       O475   2.470       .  S
Cd470       O471   2.462       .  S
Cd470      O1434   2.465       .  S
Cd470      O1432   2.458       .  S
O472      Cd1430   2.460   1_455  S
C473        C480   1.464       .  S
C473       O1427   1.269       .  A
C473        O477   1.264       .  A
O474      Cd1430   2.466   1_455  S
O476      Cd1430   2.356   1_455  S
C478        C479   1.412       .  A
C478        C509   1.492       .  S
C479        C480   1.404       .  A
C479        H484   1.083       .  S
C480        C481   1.389       .  A
C481        H485   1.086       .  S
C482        C673   1.385       .  A
C482        C483   1.407       .  A
C482       C1428   1.465       .  S
C483        C670   1.418       .  A
C483        H486   1.083       .  S
O487        C490   1.266       .  A
O487       Cd492   2.475       .  S
C488        C504   1.457       .  S
C488        O497   1.272       .  A
C488        O493   1.259       .  A
O489        C495   1.269       .  A
O489       Cd492   2.454       .  S
C490        O498   1.266       .  A
C491        C502   1.453       .  S
C491        O496   1.268       .  A
C491        O494   1.262       .  A
Cd492       O499   2.455       .  S
Cd492       O498   2.481       .  S
Cd492       O497   2.424       .  S
Cd492       O493   2.395       .  S
Cd492       O496   2.430       .  S
Cd492       O494   2.390       .  S
C495        O499   1.270       .  A
C500        C693   1.410       .  A
C500        C505   1.416       .  A
C500        C577   1.497       .  S
C501        C502   1.408       .  A
C501        H506   1.081       .  S
C502        C503   1.380       .  A
C503        H507   1.086       .  S
C504        C695   1.378       .  A
C504        C505   1.408       .  A
C505        H508   1.080       .  S
C509        C510   1.404       .  A
C510        C511   1.402       .  A
C510        H515   1.081       .  S
C511        C512   1.429       .  A
C511        C529   1.525       .  S
C512        H516   1.080       .  S
C513        C704   1.428       .  A
C513        C514   1.404       .  A
C513        C531   1.527       .  S
C514        C701   1.407       .  A
C514        H517   1.080       .  S
C518        C519   1.399       .  A
C518        C523   1.402       .  A
C518        C546   1.478       .  S
C519        C520   1.400       .  A
C519        H524   1.083       .  S
C520        C521   1.433       .  A
C520        C538   1.524       .  S
C521        C522   1.435       .  A
C521        H525   1.079       .  S
C522        C523   1.409       .  A
C522        C540   1.535       .  S
C523        H526   1.080       .  S
C527        C528   1.402       .  A
C527        C532   1.402       .  A
C527        C549   1.478       .  S
C528        C529   1.405       .  A
C528        H533   1.081       .  S
C529        C530   1.432       .  A
C530        C531   1.431       .  A
C530        H534   1.080       .  S
C531        C532   1.404       .  A
C532        H535   1.082       .  S
C536        C537   1.409       .  A
C536       C1403   1.503       .  S
C537        C538   1.401       .  A
C537        H542   1.080       .  S
C539        C730   1.428       .  A
C539        C540   1.430       .  A
C539        H543   1.079       .  S
C540        C541   1.409       .  A
C541        C728   1.414       .  A
C541        H544   1.072       .  S
C545       C1506   1.402       .  A
C545        C550   1.405       .  A
C545        H552   1.083       .  S
C546       C1505   1.403       .  A
C546        C547   1.416       .  A
C547        C548   1.405       .  A
C547        C554   1.520       .  S
C548        C549   1.402       .  A
C548        H553   1.083       .  S
C549       C1510   1.417       .  A
C550       C1509   1.417   1_455  A
C550        C551   1.519       .  S
C551        F556   1.381       .  S
C551        F557   1.383       .  S
C554        F558   1.383       .  S
C554        F559   1.381       .  S
C554        F752   1.385       .  S
F555        C743   1.385       .  S
C561        C562   1.403       .  A
C561        C566   1.406   1_545  A
C561        H568   1.083       .  S
C562        C563   1.416       .  A
C563        C564   1.406   1_545  A
C563        C570   1.519       .  S
C564        C565   1.403       .  A
C564        H569   1.083       .  S
C565        C566   1.416       .  A
C566        C567   1.519       .  S
C567        F571   1.385       .  S
C567        F572   1.383       .  S
C567        F573   1.382       .  S
C570        F574   1.382       .  S
C570        F575   1.383       .  S
C570        F576   1.385       .  S
C577        C582   1.409       .  A
C578        C769   1.414       .  A
C578        C579   1.409       .  A
C578        H583   1.075       .  S
C579        C580   1.430       .  A
C579        C599   1.534       .  S
C580        C773   1.430       .  A
C580        H584   1.079       .  S
C581        C582   1.401       .  A
C581        C597   1.524       .  S
C582        H585   1.081       .  S
C586        C587   1.402       .  A
C586        C591   1.401       .  A
C586        C757   1.479       .  S
C587        C588   1.406       .  A
C587        H592   1.082       .  S
C588        C589   1.434       .  A
C588        C606   1.528       .  S
C589        C590   1.433       .  A
C589        H593   1.081       .  S
C590        C591   1.404       .  A
C590        C608   1.527       .  S
C591        H594   1.082       .  S
C595        C596   1.400       .  A
C595        C600   1.403       .  A
C595        C754   1.479       .  S
C596        C597   1.402       .  A
C596        H601   1.083       .  S
C597        C598   1.434       .  A
C598        C599   1.435       .  A
C598        H602   1.079       .  S
C599        C600   1.409       .  A
C600        H603   1.081       .  S
C604        C797   1.414       .  A
C604        C609   1.415       .  A
C604        C613   1.513       .  S
C605        C606   1.406       .  A
C605        H610   1.078       .  S
C607        C798   1.427       .  A
C607        C608   1.428       .  A
C607        H611   1.081       .  S
C608        C609   1.405       .  A
C609        H612   1.076       .  S
C613        C806   1.419       .  A
C613        C618   1.418       .  A
C614        C615   1.409       .  A
C614        H619   1.081       .  S
C615        C630   1.460       .  S
C616        C807   1.378       .  A
C616        C617   1.379       .  A
C616        H620   1.086       .  S
C617        C618   1.406       .  A
C617        C625   1.453       .  S
C618        H621   1.080       .  S
O622        C625   1.265       .  A
O622       Cd627   2.406       .  S
C623        C645   1.466       .  S
C623        O632   1.266       .  A
C623        O628   1.268       .  A
O624        C630   1.271       .  A
O624       Cd627   2.358       .  S
C625        O633   1.266       .  A
C626        C648   1.468       .  S
C626        O631   1.269       .  A
C626        O629   1.270       .  A
Cd627       O634   2.428       .  S
Cd627       O633   2.392       .  S
Cd627       O632   2.437       .  S
Cd627       O628   2.474       .  S
Cd627       O631   2.449       .  S
Cd627       O629   2.458       .  S
C630        O634   1.260       .  A
C635        C636   1.418       .  A
C635       C1688   1.515   1_655  S
C636        C637   1.404       .  A
C636        H641   1.078       .  S
C637        C638   1.378       .  A
C637        C652   1.455       .  S
C638        H642   1.085       .  S
C639        C830   1.376       .  A
C639        C640   1.405       .  A
C639       C1607   1.459       .  S
C640        C827   1.417       .  A
C640        H643   1.079       .  S
O644       C1607   1.263       .  A
O644       Cd649   2.395       .  S
C645        O654   1.265       .  A
C645        O650   1.268       .  A
O646       C1612   1.270       .  A
O646      Cd1609   2.357       .  S
C647       C1599   1.457       .  S
C647       O1604   1.262       .  A
C647        O655   1.269       .  A
C648        O653   1.269       .  A
C648        O651   1.269       .  A
Cd649      O1606   2.365       .  S
Cd649       O656   2.403       .  S
Cd649      O1615   2.418       .  S
Cd649       O654   2.443   1_655  S
Cd649       O650   2.481   1_655  S
Cd649      O1613   2.426       .  S
Cd649      O1611   2.442       .  S
O651      Cd1609   2.459       .  S
C652       O1606   1.269       .  A
C652        O656   1.262       .  A
O653      Cd1609   2.451       .  S
O655      Cd1609   2.401       .  S
O657       C1620   1.263       .  A
O657       Cd662   2.413       .  S
C658        C682   1.463       .  S
C658        O667   1.266       .  A
C658        O663   1.265       .  A
O659       C1625   1.270       .  A
O659      Cd1622   2.414       .  S
C660       C1634   1.448       .  S
C660       O1617   1.264       .  A
C660        O668   1.268       .  A
C661        C687   1.458       .  S
C661        O666   1.269       .  A
C661        O664   1.269       .  A
Cd662      O1619   2.421       .  S
Cd662       O669   2.407       .  S
Cd662      O1628   2.345       .  S
Cd662       O667   2.457       .  S
Cd662       O663   2.459       .  S
Cd662      O1626   2.440       .  S
Cd662      O1624   2.443       .  S
O664      Cd1622   2.434       .  S
C665        C672   1.456       .  S
C665       O1619   1.270       .  A
C665        O669   1.260       .  A
O666      Cd1622   2.426       .  S
O668      Cd1622   2.375       .  S
C670        C671   1.415       .  A
C670        C701   1.501       .  S
C671        C672   1.406       .  A
C671        H676   1.080       .  S
C672        C673   1.377       .  A
C673        H677   1.085       .  S
C674        C865   1.383       .  A
C674        C675   1.403       .  A
C674       C1620   1.454       .  S
C675        C862   1.413       .  A
C675        H678   1.083       .  S
O679        C682   1.267       .  A
O679       Cd684   2.460       .  S
C680        C696   1.456       .  S
C680        O689   1.269       .  A
C680        O685   1.261       .  A
O681        C687   1.268       .  A
O681       Cd684   2.427       .  S
C682        O690   1.265       .  A
C683        C694   1.454       .  S
C683        O688   1.268       .  A
C683        O686   1.263       .  A
Cd684       O691   2.436       .  S
Cd684       O690   2.446       .  S
Cd684       O689   2.424       .  S
Cd684       O685   2.401       .  S
Cd684       O688   2.342       .  S
Cd684       O686   2.408       .  S
C687        O691   1.269       .  A
C692        C885   1.418       .  A
C692        C697   1.415       .  A
C692        C769   1.503       .  S
C693        C694   1.401       .  A
C693        H698   1.083       .  S
C694        C695   1.384       .  A
C695        H699   1.085       .  S
C696        C887   1.377       .  A
C696        C697   1.405       .  A
C697        H700   1.079       .  S
C701        C702   1.413       .  A
C702        C703   1.412       .  A
C702        H707   1.075       .  S
C703        C704   1.431       .  A
C703        C721   1.537       .  S
C704        H708   1.078       .  S
C705        C896   1.429       .  A
C705        C706   1.402       .  A
C705        C723   1.523       .  S
C706        C893   1.409       .  A
C706        H709   1.081       .  S
C710        C711   1.402       .  A
C710        C715   1.402       .  A
C710        C738   1.481       .  S
C711        C712   1.405       .  A
C711        H716   1.082       .  S
C712        C713   1.431       .  A
C712        C730   1.527       .  S
C713        C714   1.434       .  A
C713        H717   1.080       .  S
C714        C715   1.407       .  A
C714        C732   1.530       .  S
C715        H718   1.080       .  S
C719        C720   1.403       .  A
C719        C724   1.400       .  A
C719        C741   1.482       .  S
C720        C721   1.411       .  A
C720        H725   1.079       .  S
C721        C722   1.434       .  A
C722        C723   1.432       .  A
C722        H726   1.079       .  S
C723        C724   1.402       .  A
C724        H727   1.083       .  S
C728        C729   1.411       .  A
C728       C1595   1.509       .  S
C729        C730   1.405       .  A
C729        H734   1.080       .  S
C731        C922   1.428       .  A
C731        C732   1.429       .  A
C731        H735   1.080       .  S
C732        C733   1.407       .  A
C733        C920   1.413       .  A
C733        H736   1.074       .  S
C737       C1698   1.403       .  A
C737        C742   1.407       .  A
C737        H744   1.083       .  S
C738       C1697   1.403       .  A
C738        C739   1.417       .  A
C739        C740   1.406       .  A
C739        C746   1.520       .  S
C740        C741   1.403       .  A
C740        H745   1.083       .  S
C741       C1702   1.418       .  A
C742       C1701   1.418   1_455  A
C742        C743   1.520       .  S
C743        F748   1.381       .  S
C743        F749   1.383       .  S
C746        F750   1.383       .  S
C746        F751   1.381       .  S
C746        F944   1.384       .  S
F747        C935   1.385       .  S
C753        C754   1.403       .  A
C753        C758   1.406   1_545  A
C753        H760   1.083       .  S
C754        C755   1.415       .  A
C755        C756   1.405   1_545  A
C755        C762   1.518       .  S
C756        C757   1.403       .  A
C756        H761   1.083       .  S
C757        C758   1.415       .  A
C758        C759   1.518       .  S
C759        F763   1.385       .  S
C759        F764   1.383       .  S
C759        F765   1.382       .  S
C762        F766   1.382       .  S
C762        F767   1.383       .  S
C762        F768   1.385       .  S
C769        C774   1.408       .  A
C770        C771   1.400       .  A
C770        H775   1.082       .  S
C771        C772   1.429       .  A
C771        C791   1.523       .  S
C772        H776   1.080       .  S
C773        C774   1.405       .  A
C773        C789   1.528       .  S
C774        H777   1.080       .  S
C778        C779   1.400       .  A
C778        C783   1.401       .  A
C778        C949   1.476       .  S
C779        C780   1.403       .  A
C779        H784   1.082       .  S
C780        C781   1.434       .  A
C780        C798   1.527       .  S
C781        C782   1.435       .  A
C781        H785   1.080       .  S
C782        C783   1.403       .  A
C782        C800   1.530       .  S
C783        H786   1.082       .  S
C787        C788   1.402       .  A
C787        C792   1.401       .  A
C787        C946   1.476       .  S
C788        C789   1.404       .  A
C788        H793   1.082       .  S
C789        C790   1.432       .  A
C790        C791   1.432       .  A
C790        H794   1.080       .  S
C791        C792   1.403       .  A
C792        H795   1.082       .  S
C796        C801   1.415   1_554  A
C796        C805   1.513   1_554  S
C797        C798   1.404       .  A
C797        H802   1.073       .  S
C799        C800   1.429   1_554  A
C799        H803   1.080       .  S
C800        C801   1.405       .  A
C801        H804   1.073       .  S
C805        C810   1.417       .  A
C806        C807   1.406       .  A
C806        H811   1.077       .  S
C807        C822   1.459       .  S
C808        C809   1.377       .  A
C808        H812   1.085       .  S
C809        C810   1.403       .  A
C809        C817   1.452       .  S
C810        H813   1.078       .  S
O814        C817   1.264       .  A
O814       Cd819   2.393       .  S
C815        C837   1.465       .  S
C815        O824   1.267       .  A
C815        O820   1.267       .  A
O816        C822   1.271       .  A
O816       Cd819   2.399       .  S
C817        O825   1.267       .  A
C818        C840   1.460       .  S
C818        O823   1.270       .  A
C818        O821   1.269       .  A
Cd819       O826   2.393       .  S
Cd819       O825   2.385       .  S
Cd819       O824   2.452       .  S
Cd819       O820   2.458       .  S
Cd819       O823   2.430       .  S
Cd819       O821   2.436       .  S
C822        O826   1.261       .  A
C827        C828   1.416       .  A
C827       C1880   1.503       .  S
C828        C829   1.407       .  A
C828        H833   1.083   1_655  S
C829        C830   1.386       .  A
C829        C844   1.460       .  S
C830        H834   1.085       .  S
C831        C832   1.407       .  A
C831       C1799   1.459       .  S
C832        H835   1.077       .  S
O836       C1799   1.261       .  A
O836       Cd841   2.411       .  S
C837        O846   1.266       .  A
C837        O842   1.267       .  A
O838       C1804   1.268       .  A
O838      Cd1801   2.370       .  S
C839       C1791   1.458       .  S
C839       O1796   1.262       .  A
C839        O847   1.270       .  A
C840        O845   1.268       .  A
C840        O843   1.270       .  A
Cd841      O1798   2.361       .  S
Cd841       O848   2.426   1_655  S
Cd841      O1807   2.410       .  S
Cd841       O846   2.457   1_655  S
Cd841       O842   2.466   1_655  S
Cd841      O1805   2.454       .  S
Cd841      O1803   2.455       .  S
O843      Cd1801   2.438       .  S
C844       O1798   1.270       .  A
C844        O848   1.262   1_655  A
O845      Cd1801   2.427       .  S
O847      Cd1801   2.422       .  S
O849       C1812   1.264       .  A
O849       Cd854   2.376       .  S
C850        C874   1.468       .  S
C850        O859   1.266       .  A
C850        O855   1.267       .  A
O851       C1817   1.271       .  A
O851      Cd1814   2.374       .  S
C852       C1826   1.453       .  S
C852       O1809   1.265       .  A
C852        O860   1.266       .  A
C853        C879   1.466       .  S
C853        O858   1.269       .  A
C853        O856   1.270       .  A
Cd854      O1811   2.399       .  S
Cd854       O861   2.400       .  S
Cd854      O1820   2.431       .  S
Cd854       O859   2.468       .  S
Cd854       O855   2.479       .  S
Cd854      O1818   2.435       .  S
Cd854      O1816   2.445       .  S
O856      Cd1814   2.451       .  S
C857        C864   1.457       .  S
C857       O1811   1.271       .  A
C857        O861   1.260       .  A
O858      Cd1814   2.441       .  S
O860      Cd1814   2.438       .  S
C862        C863   1.417       .  A
C862        C893   1.501       .  S
C863        C864   1.405       .  A
C863        H868   1.079       .  S
C864        C865   1.377       .  A
C865        H869   1.085       .  S
C866        C867   1.407       .  A
C866       C1812   1.450       .  S
C867        H870   1.081       .  S
O871        C874   1.266       .  A
O871       Cd876   2.466       .  S
C872        C888   1.461       .  S
C872        O881   1.269       .  A
C872        O877   1.263       .  A
O873        C879   1.269       .  A
O873       Cd876   2.453       .  S
C874        O882   1.266       .  A
C875        C886   1.465       .  S
C875        O880   1.269       .  A
C875        O878   1.262       .  A
Cd876       O883   2.459       .  S
Cd876       O882   2.460       .  S
Cd876       O881   2.377       .  S
Cd876       O877   2.423       .  S
Cd876       O880   2.368       .  S
Cd876       O878   2.456       .  S
C879        O883   1.269       .  A
C884        C889   1.410       .  A
C885        C886   1.408       .  A
C885        H890   1.083       .  S
C886        C887   1.386       .  A
C887        H891   1.085       .  S
C888        C889   1.403       .  A
C889        H892   1.084       .  S
C893        C894   1.409       .  A
C894        C895   1.407       .  A
C894        H899   1.073       .  S
C895        C896   1.431       .  A
C895        C913   1.531       .  S
C896        H900   1.080       .  S
C897        C898   1.410       .  A
C897        C915   1.527       .  S
C898        H901   1.079       .  S
C902        C903   1.401       .  A
C902        C907   1.403       .  A
C902        C930   1.480       .  S
C903        C904   1.402       .  A
C903        H908   1.083       .  S
C904        C905   1.433       .  A
C904        C922   1.525       .  S
C905        C906   1.433       .  A
C905        H909   1.080       .  S
C906        C907   1.408       .  A
C906        C924   1.532       .  S
C907        H910   1.080       .  S
C911        C912   1.402       .  A
C911        C916   1.401       .  A
C911        C933   1.481       .  S
C912        C913   1.407       .  A
C912        H917   1.080       .  S
C913        C914   1.435       .  A
C914        C915   1.430       .  A
C914        H918   1.078       .  S
C915        C916   1.405       .  A
C916        H919   1.082       .  S
C920        C921   1.413       .  A
C920       C1787   1.512       .  S
C921        C922   1.402       .  A
C921        H926   1.074       .  S
C923        C924   1.431       .  A
C923        H927   1.079       .  S
C924        C925   1.409       .  A
C925        H928   1.076       .  S
C929       C1890   1.402       .  A
C929        C934   1.404       .  A
C929        H936   1.083       .  S
C930       C1889   1.402       .  A
C930        C931   1.418       .  A
C931        C932   1.406       .  A
C931        C938   1.520       .  S
C932        C933   1.403       .  A
C932        H937   1.083       .  S
C933       C1894   1.417       .  A
C934       C1893   1.417   1_455  A
C934        C935   1.520       .  S
C935        F940   1.382       .  S
C935        F941   1.383       .  S
C938        F942   1.383       .  S
C938        F943   1.381       .  S
C945        C946   1.403       .  A
C945        C950   1.405   1_545  A
C945        H952   1.083       .  S
C946        C947   1.415       .  A
C947        C948   1.404   1_545  A
C947        C954   1.519       .  S
C948        C949   1.402       .  A
C948        H953   1.083       .  S
C949        C950   1.415       .  A
C950        C951   1.519       .  S
C951        F955   1.385       .  S
C951        F956   1.383       .  S
C951        F957   1.382       .  S
C954        F958   1.382       .  S
C954        F959   1.383       .  S
C954        F960   1.385       .  S
C961       C1730   1.406   1_554  A
C961        C966   1.408       .  A
C961       C1844   1.492   1_554  S
C962       C1153   1.412       .  A
C962        C963   1.409       .  A
C962        H967   1.075       .  S
C963        C964   1.431       .  A
C963        C983   1.536       .  S
C964       C1157   1.431       .  A
C964        H968   1.078       .  S
C965       C1732   1.432   1_554  A
C965        C966   1.409       .  A
C965        C981   1.526       .  S
C966        H969   1.080       .  S
C970        C971   1.403       .  A
C970        C975   1.403       .  A
C970       C1141   1.484       .  S
C971        C972   1.407       .  A
C971        H976   1.082       .  S
C972        C973   1.433       .  A
C972        C990   1.530       .  S
C973        C974   1.434       .  A
C973        H977   1.079       .  S
C974        C975   1.408       .  A
C974        C992   1.533       .  S
C975        H978   1.081       .  S
C979        C980   1.401       .  A
C979        C984   1.404       .  A
C979       C1138   1.485       .  S
C980        C981   1.404       .  A
C980        H985   1.082       .  S
C981        C982   1.432       .  A
C982        C983   1.436       .  A
C982        H986   1.078       .  S
C983        C984   1.411       .  A
C984        H987   1.081       .  S
C988       C1181   1.409       .  A
C988        C993   1.413       .  A
C988        C997   1.504       .  S
C989       C1756   1.412       .  A
C989        C990   1.408       .  A
C989        H994   1.076       .  S
C990       C1759   1.429       .  A
C991       C1182   1.430       .  A
C991        C992   1.430       .  A
C991        H995   1.080       .  S
C992        C993   1.408       .  A
C993        H996   1.073       .  S
C997       C1190   1.417       .  A
C997       C1002   1.415       .  A
C998       C1765   1.416   1_554  A
C998        C999   1.406       .  A
C998       H1003   1.079       .  S
C999       C1768   1.377   1_554  A
C999       C1014   1.459       .  S
C1000      C1191   1.382       .  A
C1000      C1001   1.374       .  A
C1000      H1004   1.085       .  S
C1001      C1002   1.402       .  A
C1001      C1009   1.451       .  S
C1002      H1005   1.078       .  S
O1006      C1009   1.264       .  A
O1006     Cd1011   2.389       .  S
C1007      C1029   1.468       .  S
C1007      O1016   1.267       .  A
C1007      O1012   1.266       .  A
O1008      C1014   1.271       .  A
O1008     Cd1011   2.413       .  S
C1009      O1017   1.268       .  A
C1010      C1032   1.461       .  S
C1010      O1015   1.270       .  A
C1010      O1013   1.269       .  A
Cd1011     O1018   2.395       .  S
Cd1011     O1017   2.396       .  S
Cd1011     O1016   2.471       .  S
Cd1011     O1012   2.466       .  S
Cd1011     O1015   2.434       .  S
Cd1011     O1013   2.437       .  S
C1014      O1018   1.261       .  A
C1019      C1020   1.415       .  A
C1019      C1792   1.416   1_554  A
C1020      C1021   1.406       .  A
C1020      H1025   1.083       .  S
C1021      C1022   1.387       .  A
C1021      C1036   1.461       .  S
C1022      C1791   1.378   1_554  A
C1022      H1026   1.085       .  S
C1023      C1214   1.378       .  A
C1023      C1024   1.408       .  A
C1024      C1211   1.420       .  A
C1024      H1027   1.080       .  S
O1028     Cd1033   2.423       .  S
C1029      O1038   1.267       .  A
C1029      O1034   1.266       .  A
C1031      O1039   1.270       .  A
C1032      O1037   1.269       .  A
C1032      O1035   1.270       .  A
Cd1033     O1040   2.431       .  S
Cd1033     O1038   2.465       .  S
Cd1033     O1034   2.459       .  S
C1036      O1040   1.262       .  A
O1041     Cd1046   2.474       .  S
C1042      C1066   1.467       .  S
C1042      O1051   1.268       .  A
C1042      O1047   1.264       .  A
C1044      O1052   1.270       .  A
C1045      C1071   1.469       .  S
C1045      O1050   1.269       .  A
C1045      O1048   1.268       .  A
Cd1046     O1053   2.416       .  S
Cd1046     O1051   2.494       .  S
Cd1046     O1047   2.424       .  S
C1049      C1056   1.460       .  S
C1049      O1053   1.265   1_455  A
C1054      C1055   1.411   1_556  A
C1054      C1827   1.413       .  A
C1054      C1085   1.496       .  S
C1055      C1056   1.403       .  A
C1055      H1060   1.083   1_455  S
C1056      C1057   1.386       .  A
C1057      C1826   1.382   1_554  A
C1057      H1061   1.086       .  S
C1058      C1249   1.381   1_655  A
C1058      C1059   1.410       .  A
C1059      C1246   1.421       .  A
C1059      H1062   1.082       .  S
O1063      C1066   1.264       .  A
O1063     Cd1068   2.441       .  S
C1064      C1080   1.451       .  S
C1064      O1073   1.271       .  A
C1064      O1069   1.258       .  A
O1065      C1071   1.269       .  A
O1065     Cd1068   2.469       .  S
C1066      O1074   1.268       .  A
C1067      C1078   1.451       .  S
C1067      O1072   1.266       .  A
C1067      O1070   1.266       .  A
Cd1068     O1075   2.446       .  S
Cd1068     O1074   2.506       .  S
Cd1068     O1073   2.397       .  S
Cd1068     O1069   2.404       .  S
Cd1068     O1072   2.456       .  S
Cd1068     O1070   2.364       .  S
C1071      O1075   1.268       .  A
C1076      C1269   1.419       .  A
C1076      C1081   1.415       .  A
C1076      C1153   1.502       .  S
C1077      C1844   1.413   1_554  A
C1077      C1078   1.410       .  A
C1077      H1082   1.081       .  S
C1078      C1079   1.383   1_554  A
C1079      C1848   1.389       .  A
C1079      H1083   1.087       .  S
C1080      C1271   1.376       .  A
C1080      C1081   1.402       .  A
C1081      H1084   1.081       .  S
C1085      C1086   1.406   1_556  A
C1085      C1858   1.411   1_455  A
C1086      C1087   1.401   1_455  A
C1086      H1091   1.082       .  S
C1087      C1088   1.426   1_554  A
C1087      C1105   1.522       .  S
C1088      C1857   1.430       .  A
C1088      H1092   1.080       .  S
C1089      C1280   1.431       .  A
C1089      C1090   1.407       .  A
C1089      C1107   1.531       .  S
C1090      C1277   1.408       .  A
C1090      H1093   1.079       .  S
C1094      C1095   1.401       .  A
C1094      C1099   1.401       .  A
C1094      C1122   1.479       .  S
C1095      C1096   1.404       .  A
C1095      H1100   1.082       .  S
C1096      C1097   1.432       .  A
C1096      C1114   1.528       .  S
C1097      C1098   1.435       .  A
C1097      H1101   1.079       .  S
C1098      C1099   1.406       .  A
C1098      C1116   1.531       .  S
C1099      H1102   1.080       .  S
C1103      C1104   1.400       .  A
C1103      C1108   1.403       .  A
C1103      C1125   1.479   1_655  S
C1104      C1105   1.403       .  A
C1104      H1109   1.081       .  S
C1105      C1106   1.431       .  A
C1106      C1107   1.432       .  A
C1106      H1110   1.080       .  S
C1107      C1108   1.407       .  A
C1108      H1111   1.081       .  S
C1112      C1113   1.415       .  A
C1112      C1885   1.413   1_554  A
C1113      C1114   1.405       .  A
C1113      H1118   1.077   1_455  S
C1114      C1883   1.428   1_554  A
C1115      C1306   1.427       .  A
C1115      C1116   1.429       .  A
C1115      H1119   1.080       .  S
C1116      C1117   1.407       .  A
C1117      C1304   1.414   1_455  A
C1117      H1120   1.071       .  S
C1121      C1126   1.406       .  A
C1121      H1128   1.083       .  S
C1122      C1123   1.417   1_455  A
C1123      C1124   1.405       .  A
C1123      C1130   1.520       .  S
C1124      C1125   1.402   1_655  A
C1124      H1129   1.083       .  S
C1126      C1127   1.519       .  S
C1127      F1899   1.385       .  S
C1127      F1132   1.381       .  S
C1127      F1133   1.383       .  S
C1130      F1134   1.383       .  S
C1130      F1135   1.381       .  S
C1130      F1328   1.385       .  S
F1131      C1319   1.385       .  S
F1136      C1898   1.385       .  S
C1137      C1138   1.403       .  A
C1137      C1142   1.407   1_545  A
C1137      H1144   1.083       .  S
C1138      C1139   1.417       .  A
C1139      C1140   1.408   1_545  A
C1139      C1146   1.518       .  S
C1140      C1141   1.404       .  A
C1140      H1145   1.083       .  S
C1141      C1142   1.416       .  A
C1142      C1143   1.518       .  S
C1143      F1147   1.385       .  S
C1143      F1148   1.383       .  S
C1143      F1149   1.382       .  S
C1146      F1150   1.382       .  S
C1146      F1151   1.383       .  S
C1146      F1152   1.385       .  S
C1153      C1158   1.408       .  A
C1154      C1345   1.409       .  A
C1154      C1155   1.400       .  A
C1154      H1159   1.081       .  S
C1155      C1156   1.426       .  A
C1155      C1175   1.520       .  S
C1156      C1349   1.430       .  A
C1156      H1160   1.081       .  S
C1157      C1158   1.406       .  A
C1157      C1173   1.531       .  S
C1158      H1161   1.079       .  S
C1162      C1163   1.400       .  A
C1162      C1167   1.402       .  A
C1162      C1333   1.476       .  S
C1163      C1164   1.403       .  A
C1163      H1168   1.082       .  S
C1164      C1165   1.434       .  A
C1164      C1182   1.526       .  S
C1165      C1166   1.434       .  A
C1165      H1169   1.080       .  S
C1166      C1167   1.404       .  A
C1166      C1184   1.528       .  S
C1167      H1170   1.082       .  S
C1171      C1172   1.402       .  A
C1171      C1176   1.399       .  A
C1171      C1330   1.476       .  S
C1172      C1173   1.406       .  A
C1172      H1177   1.081       .  S
C1173      C1174   1.434       .  A
C1174      C1175   1.431       .  A
C1174      H1178   1.080       .  S
C1175      C1176   1.401       .  A
C1176      H1179   1.083       .  S
C1180      C1373   1.414       .  A
C1180      C1185   1.415       .  A
C1180      C1189   1.513       .  S
C1181      C1182   1.403       .  A
C1181      H1186   1.080       .  S
C1183      C1374   1.428       .  A
C1183      C1184   1.428       .  A
C1183      H1187   1.080       .  S
C1184      C1185   1.405       .  A
C1185      H1188   1.076       .  S
C1189      C1382   1.420       .  A
C1189      C1194   1.417       .  A
C1190      C1191   1.407       .  A
C1190      H1195   1.082       .  S
C1191      C1206   1.459       .  S
C1192      C1383   1.379       .  A
C1192      C1193   1.379       .  A
C1192      H1196   1.086       .  S
C1193      C1194   1.405       .  A
C1193      C1201   1.452       .  S
C1194      H1197   1.080       .  S
O1198      C1201   1.266       .  A
O1198     Cd1203   2.404       .  S
C1199      C1221   1.466       .  S
C1199      O1208   1.266       .  A
C1199      O1204   1.269       .  A
O1200      C1206   1.271       .  A
O1200     Cd1203   2.353       .  S
C1201      O1209   1.265       .  A
C1202      C1224   1.465       .  S
C1202      O1207   1.269       .  A
C1202      O1205   1.270       .  A
Cd1203     O1210   2.426       .  S
Cd1203     O1209   2.395       .  S
Cd1203     O1208   2.435       .  S
Cd1203     O1204   2.472       .  S
Cd1203     O1207   2.442       .  S
Cd1203     O1205   2.453       .  S
C1206      O1210   1.261       .  A
C1211      C1212   1.419       .  A
C1212      C1213   1.405       .  A
C1212      H1217   1.077       .  S
C1213      C1214   1.377       .  A
C1213      C1228   1.456       .  S
C1214      H1218   1.085       .  S
C1215      C1406   1.377       .  A
C1215      C1216   1.407       .  A
C1216      C1403   1.417       .  A
C1216      H1219   1.079       .  S
O1220     Cd1225   2.399       .  S
C1221      O1230   1.265       .  A
C1221      O1226   1.267       .  A
C1223      O1231   1.269       .  A
C1224      O1229   1.269       .  A
C1224      O1227   1.270       .  A
Cd1225     O1232   2.407       .  S
Cd1225     O1230   2.449       .  S
Cd1225     O1226   2.484       .  S
C1228      O1232   1.262       .  A
O1233     Cd1238   2.349       .  S
C1234      C1258   1.466       .  S
C1234      O1243   1.264       .  A
C1234      O1239   1.268       .  A
C1236      O1244   1.264       .  A
C1237      C1263   1.463       .  S
C1237      O1242   1.267       .  A
C1237      O1240   1.268       .  A
Cd1238     O1245   2.414       .  S
Cd1238     O1243   2.432   1_455  S
Cd1238     O1239   2.507   1_455  S
C1241      C1248   1.448       .  S
C1241      O1245   1.261       .  A
C1246      C1247   1.416   1_655  A
C1246      C1277   1.504       .  S
C1247      C1248   1.398       .  A
C1247      H1252   1.080       .  S
C1248      C1249   1.374       .  A
C1249      H1253   1.085       .  S
C1250      C1441   1.384       .  A
C1250      C1251   1.408       .  A
C1251      C1438   1.413       .  A
C1251      H1254   1.081       .  S
O1255      C1258   1.268       .  A
O1255     Cd1260   2.490       .  S
C1256      C1272   1.453       .  S
C1256      O1265   1.266       .  A
C1256      O1261   1.266       .  A
O1257      C1263   1.267       .  A
O1257     Cd1260   2.433       .  S
C1258      O1266   1.264       .  A
C1259      C1270   1.463       .  S
C1259      O1264   1.270       .  A
C1259      O1262   1.261       .  A
Cd1260     O1267   2.467       .  S
Cd1260     O1266   2.415       .  S
Cd1260     O1265   2.404       .  S
Cd1260     O1261   2.392       .  S
Cd1260     O1264   2.339       .  S
Cd1260     O1262   2.462       .  S
C1263      O1267   1.269       .  A
C1268      C1461   1.415       .  A
C1268      C1273   1.409       .  A
C1268      C1345   1.499       .  S
C1269      C1270   1.407       .  A
C1269      H1274   1.083       .  S
C1270      C1271   1.383       .  A
C1271      H1275   1.085       .  S
C1272      C1463   1.383       .  A
C1272      C1273   1.400       .  A
C1273      H1276   1.083       .  S
C1277      C1278   1.412       .  A
C1278      C1279   1.410       .  A
C1278      H1283   1.072       .  S
C1279      C1280   1.432       .  A
C1279      C1297   1.542       .  S
C1280      H1284   1.075       .  S
C1281      C1472   1.431       .  A
C1281      C1282   1.410   1_655  A
C1281      C1299   1.526       .  S
C1282      C1469   1.410       .  A
C1282      H1285   1.079       .  S
C1286      C1287   1.402       .  A
C1286      C1291   1.405       .  A
C1286      C1314   1.484       .  S
C1287      C1288   1.403       .  A
C1287      H1292   1.083       .  S
C1288      C1289   1.431       .  A
C1288      C1306   1.525       .  S
C1289      C1290   1.432       .  A
C1289      H1293   1.080       .  S
C1290      C1291   1.409       .  A
C1290      C1308   1.532       .  S
C1291      H1294   1.080       .  S
C1295      C1296   1.403       .  A
C1295      C1300   1.399       .  A
C1295      C1317   1.484       .  S
C1296      C1297   1.413       .  A
C1296      H1301   1.077       .  S
C1297      C1298   1.439       .  A
C1298      C1299   1.431       .  A
C1298      H1302   1.076       .  S
C1299      C1300   1.403       .  A
C1300      H1303   1.082       .  S
C1304      C1305   1.412   1_655  A
C1305      C1306   1.403       .  A
C1305      H1310   1.077   1_455  S
C1307      C1498   1.429       .  A
C1307      C1308   1.430       .  A
C1307      H1311   1.079       .  S
C1308      C1309   1.410       .  A
C1309      C1496   1.412   1_455  A
C1309      H1312   1.075       .  S
C1313      C1318   1.408       .  A
C1313      H1320   1.083       .  S
C1314      C1315   1.418   1_455  A
C1315      C1316   1.408       .  A
C1315      C1322   1.520       .  S
C1316      C1317   1.403       .  A
C1316      H1321   1.083       .  S
C1318      C1319   1.519       .  S
C1319      F1324   1.381       .  S
C1319      F1325   1.383       .  S
C1322      F1326   1.383       .  S
C1322      F1327   1.381       .  S
C1322      F1520   1.385       .  S
F1323      C1511   1.385       .  S
C1329      C1330   1.402       .  A
C1329      C1334   1.404   1_545  A
C1329      H1336   1.083       .  S
C1330      C1331   1.415       .  A
C1331      C1332   1.404   1_545  A
C1331      C1338   1.519       .  S
C1332      C1333   1.402       .  A
C1332      H1337   1.083       .  S
C1333      C1334   1.416       .  A
C1334      C1335   1.519       .  S
C1335      F1339   1.385       .  S
C1335      F1340   1.383       .  S
C1335      F1341   1.382       .  S
C1338      F1342   1.382       .  S
C1338      F1343   1.383       .  S
C1338      F1344   1.385       .  S
C1345      C1350   1.411       .  A
C1346      C1537   1.409       .  A
C1346      C1347   1.407       .  A
C1346      H1351   1.076       .  S
C1347      C1348   1.431       .  A
C1347      C1367   1.528       .  S
C1348      C1541   1.429       .  A
C1348      H1352   1.080       .  S
C1349      C1350   1.409       .  A
C1349      C1365   1.524       .  S
C1350      H1353   1.077       .  S
C1354      C1355   1.401       .  A
C1354      C1359   1.402       .  A
C1354      C1525   1.478       .  S
C1355      C1356   1.405       .  A
C1355      H1360   1.082       .  S
C1356      C1357   1.434       .  A
C1356      C1374   1.527       .  S
C1357      C1358   1.433       .  A
C1357      H1361   1.080       .  S
C1358      C1359   1.404       .  A
C1358      C1376   1.528       .  S
C1359      H1362   1.082       .  S
C1363      C1364   1.400       .  A
C1363      C1368   1.401       .  A
C1363      C1522   1.479       .  S
C1364      C1365   1.404       .  A
C1364      H1369   1.082       .  S
C1365      C1366   1.431       .  A
C1366      C1367   1.434       .  A
C1366      H1370   1.079       .  S
C1367      C1368   1.407       .  A
C1368      H1371   1.082       .  S
C1372      C1565   1.413       .  A
C1372      C1377   1.413       .  A
C1372      C1381   1.512       .  S
C1373      C1374   1.405       .  A
C1373      H1378   1.073       .  S
C1375      C1566   1.428       .  A
C1375      C1376   1.429       .  A
C1375      H1379   1.080       .  S
C1376      C1377   1.406       .  A
C1377      H1380   1.077       .  S
C1381      C1574   1.419       .  A
C1381      C1386   1.418       .  A
C1382      C1383   1.407       .  A
C1382      H1387   1.078       .  S
C1383      C1398   1.460       .  S
C1384      C1575   1.375       .  A
C1384      C1385   1.380       .  A
C1384      H1388   1.085       .  S
C1385      C1386   1.407       .  A
C1385      C1393   1.457       .  S
C1386      H1389   1.081       .  S
O1390      C1393   1.262       .  A
O1390     Cd1395   2.420       .  S
C1391      C1413   1.465       .  S
C1391      O1400   1.267       .  A
C1391      O1396   1.266       .  A
O1392      C1398   1.269       .  A
O1392     Cd1395   2.407       .  S
C1393      O1401   1.269       .  A
C1394      C1416   1.466       .  S
C1394      O1399   1.269       .  A
C1394      O1397   1.269       .  A
Cd1395     O1402   2.406       .  S
Cd1395     O1401   2.358       .  S
Cd1395     O1400   2.457       .  S
Cd1395     O1396   2.460       .  S
Cd1395     O1399   2.446       .  S
Cd1395     O1397   2.449       .  S
C1398      O1402   1.262       .  A
C1403      C1404   1.414       .  A
C1404      C1405   1.404       .  A
C1404      H1409   1.082       .  S
C1405      C1406   1.385       .  A
C1405      C1420   1.456       .  S
C1406      H1410   1.085       .  S
C1407      C1598   1.375       .  A
C1407      C1408   1.405       .  A
C1408      C1595   1.418       .  A
C1408      H1411   1.078       .  S
O1412     Cd1417   2.403       .  S
C1413      O1422   1.266       .  A
C1413      O1418   1.267       .  A
C1415      O1423   1.270       .  A
C1416      O1421   1.269       .  A
C1416      O1419   1.269       .  A
Cd1417     O1424   2.408       .  S
Cd1417     O1422   2.450       .  S
Cd1417     O1418   2.463       .  S
C1420      O1424   1.263       .  A
O1425     Cd1430   2.462       .  S
C1426      C1450   1.470       .  S
C1426      O1435   1.267       .  A
C1426      O1431   1.266       .  A
C1428      O1436   1.269       .  A
C1429      C1455   1.468       .  S
C1429      O1434   1.269       .  A
C1429      O1432   1.268       .  A
Cd1430     O1437   2.429       .  S
Cd1430     O1435   2.479       .  S
Cd1430     O1431   2.454       .  S
C1433      C1440   1.465       .  S
C1433      O1437   1.264   1_455  A
C1438      C1439   1.412       .  A
C1438      C1469   1.494       .  S
C1439      C1440   1.404       .  A
C1439      H1444   1.083   1_455  S
C1440      C1441   1.390       .  A
C1441      H1445   1.086       .  S
C1442      C1633   1.386       .  A
C1442      C1443   1.407   1_455  A
C1443      C1630   1.418   1_655  A
C1443      H1446   1.083       .  S
O1447      C1450   1.265       .  A
O1447     Cd1452   2.467       .  S
C1448      C1464   1.456       .  S
C1448      O1457   1.271       .  A
C1448      O1453   1.259       .  A
O1449      C1455   1.269       .  A
O1449     Cd1452   2.456       .  S
C1450      O1458   1.267       .  A
C1451      C1462   1.456       .  S
C1451      O1456   1.268       .  A
C1451      O1454   1.263       .  A
Cd1452     O1459   2.450       .  S
Cd1452     O1458   2.495       .  S
Cd1452     O1457   2.412       .  S
Cd1452     O1453   2.401       .  S
Cd1452     O1456   2.432       .  S
Cd1452     O1454   2.396       .  S
C1455      O1459   1.269       .  A
C1460      C1653   1.412       .  A
C1460      C1465   1.417       .  A
C1460      C1537   1.498       .  S
C1461      C1462   1.410       .  A
C1461      H1466   1.080       .  S
C1462      C1463   1.383       .  A
C1463      H1467   1.086       .  S
C1464      C1655   1.376       .  A
C1464      C1465   1.407       .  A
C1465      H1468   1.080       .  S
C1469      C1470   1.406       .  A
C1470      C1471   1.402   1_455  A
C1470      H1475   1.082       .  S
C1471      C1472   1.427       .  A
C1471      C1489   1.523       .  S
C1472      H1476   1.080       .  S
C1473      C1664   1.429       .  A
C1473      C1474   1.402       .  A
C1473      C1491   1.525       .  S
C1474      C1661   1.404       .  A
C1474      H1477   1.081   1_655  S
C1478      C1479   1.399       .  A
C1478      C1483   1.401       .  A
C1478      C1506   1.476       .  S
C1479      C1480   1.401       .  A
C1479      H1484   1.082       .  S
C1480      C1481   1.433       .  A
C1480      C1498   1.525       .  S
C1481      C1482   1.435       .  A
C1481      H1485   1.080       .  S
C1482      C1483   1.406       .  A
C1482      C1500   1.531       .  S
C1483      H1486   1.080       .  S
C1487      C1488   1.402       .  A
C1487      C1492   1.401       .  A
C1487      C1509   1.477       .  S
C1488      C1489   1.404       .  A
C1488      H1493   1.081       .  S
C1489      C1490   1.430       .  A
C1490      C1491   1.431       .  A
C1490      H1494   1.080       .  S
C1491      C1492   1.403       .  A
C1492      H1495   1.082       .  S
C1496      C1497   1.409   1_655  A
C1497      C1498   1.402       .  A
C1497      H1502   1.081   1_455  S
C1499      C1690   1.427       .  A
C1499      C1500   1.429       .  A
C1499      H1503   1.079       .  S
C1500      C1501   1.407       .  A
C1501      C1688   1.414       .  A
C1501      H1504   1.074   1_455  S
C1505      C1510   1.405       .  A
C1505      H1512   1.083       .  S
C1506      C1507   1.416   1_455  A
C1507      C1508   1.404       .  A
C1507      C1514   1.520       .  S
C1508      C1509   1.402       .  A
C1508      H1513   1.083       .  S
C1510      C1511   1.519       .  S
C1511      F1516   1.381       .  S
C1511      F1517   1.383       .  S
C1514      F1518   1.383       .  S
C1514      F1519   1.382       .  S
C1514      F1712   1.385       .  S
F1515      C1703   1.385       .  S
C1521      C1522   1.403       .  A
C1521      C1526   1.405   1_545  A
C1521      H1528   1.083       .  S
C1522      C1523   1.416       .  A
C1523      C1524   1.406   1_545  A
C1523      C1530   1.518       .  S
C1524      C1525   1.403       .  A
C1524      H1529   1.083       .  S
C1525      C1526   1.415       .  A
C1526      C1527   1.519       .  S
C1527      F1531   1.385       .  S
C1527      F1532   1.383       .  S
C1527      F1533   1.382       .  S
C1530      F1534   1.382       .  S
C1530      F1535   1.383       .  S
C1530      F1536   1.385       .  S
C1537      C1542   1.409       .  A
C1538      C1729   1.414       .  A
C1538      C1539   1.408       .  A
C1538      H1543   1.073       .  S
C1539      C1540   1.429       .  A
C1539      C1559   1.533       .  S
C1540      C1733   1.430       .  A
C1540      H1544   1.079       .  S
C1541      C1542   1.404       .  A
C1541      C1557   1.526       .  S
C1542      H1545   1.081       .  S
C1546      C1547   1.402       .  A
C1546      C1551   1.403       .  A
C1546      C1717   1.482       .  S
C1547      C1548   1.406       .  A
C1547      H1552   1.082       .  S
C1548      C1549   1.435       .  A
C1548      C1566   1.530       .  S
C1549      C1550   1.433       .  A
C1549      H1553   1.079       .  S
C1550      C1551   1.407       .  A
C1550      C1568   1.533       .  S
C1551      H1554   1.082       .  S
C1555      C1556   1.401       .  A
C1555      C1560   1.403       .  A
C1555      C1714   1.482       .  S
C1556      C1557   1.404       .  A
C1556      H1561   1.082       .  S
C1557      C1558   1.433       .  A
C1558      C1559   1.434       .  A
C1558      H1562   1.079       .  S
C1559      C1560   1.409       .  A
C1560      H1563   1.081       .  S
C1564      C1757   1.409       .  A
C1564      C1569   1.415       .  A
C1564      C1573   1.505       .  S
C1565      C1566   1.404       .  A
C1565      H1570   1.071       .  S
C1567      C1758   1.428       .  A
C1567      C1568   1.429       .  A
C1567      H1571   1.080       .  S
C1568      C1569   1.409       .  A
C1569      H1572   1.074       .  S
C1573      C1766   1.417       .  A
C1573      C1578   1.415       .  A
C1574      C1575   1.403       .  A
C1574      H1579   1.076       .  S
C1575      C1590   1.457       .  S
C1576      C1767   1.384       .  A
C1576      C1577   1.376       .  A
C1576      H1580   1.086       .  S
C1577      C1578   1.404       .  A
C1577      C1585   1.451       .  S
C1578      H1581   1.079       .  S
O1582      C1585   1.266       .  A
O1582     Cd1587   2.387       .  S
C1583      C1605   1.468       .  S
C1583      O1592   1.266       .  A
C1583      O1588   1.268       .  A
O1584      C1590   1.271       .  A
O1584     Cd1587   2.383       .  S
C1585      O1593   1.266       .  A
C1586      C1608   1.460       .  S
C1586      O1591   1.269       .  A
C1586      O1589   1.269       .  A
Cd1587     O1594   2.394       .  S
Cd1587     O1593   2.414       .  S
Cd1587     O1592   2.451       .  S
Cd1587     O1588   2.477       .  S
Cd1587     O1591   2.426       .  S
Cd1587     O1589   2.440       .  S
C1590      O1594   1.261       .  A
C1595      C1596   1.418       .  A
C1596      C1597   1.409       .  A
C1596      H1601   1.082       .  S
C1597      C1598   1.384       .  A
C1597      C1612   1.462       .  S
C1598      H1602   1.085       .  S
C1599      C1790   1.378       .  A
C1599      C1600   1.407       .  A
C1600      C1787   1.419       .  A
C1600      H1603   1.079       .  S
O1604     Cd1609   2.406       .  S
C1605      O1614   1.266       .  A
C1605      O1610   1.267       .  A
C1607      O1615   1.269       .  A
C1608      O1613   1.268       .  A
C1608      O1611   1.270       .  A
Cd1609     O1616   2.439       .  S
Cd1609     O1614   2.453       .  S
Cd1609     O1610   2.475       .  S
C1612      O1616   1.261       .  A
O1617     Cd1622   2.382       .  S
C1618      C1642   1.464       .  S
C1618      O1627   1.266       .  A
C1618      O1623   1.266       .  A
C1620      O1628   1.268       .  A
C1621      C1647   1.462       .  S
C1621      O1626   1.269       .  A
C1621      O1624   1.268       .  A
Cd1622     O1629   2.392       .  S
Cd1622     O1627   2.453   1_455  S
Cd1622     O1623   2.465   1_455  S
C1625      C1632   1.453       .  S
C1625      O1629   1.260       .  A
C1630      C1631   1.412       .  A
C1630      C1661   1.497   1_455  S
C1631      C1632   1.405       .  A
C1631      H1636   1.081       .  S
C1632      C1633   1.377       .  A
C1633      H1637   1.085       .  S
C1634      C1825   1.377       .  A
C1634      C1635   1.401       .  A
C1635      C1822   1.414       .  A
C1635      H1638   1.079       .  S
O1639      C1642   1.266       .  A
O1639     Cd1644   2.470       .  S
C1640      C1656   1.458       .  S
C1640      O1649   1.269       .  A
C1640      O1645   1.261       .  A
O1641      C1647   1.268       .  A
O1641     Cd1644   2.440       .  S
C1642      O1650   1.264       .  A
C1643      C1654   1.456       .  S
C1643      O1648   1.269       .  A
C1643      O1646   1.262       .  A
Cd1644     O1651   2.447       .  S
Cd1644     O1650   2.449       .  S
Cd1644     O1649   2.420       .  S
Cd1644     O1645   2.410       .  S
Cd1644     O1648   2.337       .  S
Cd1644     O1646   2.425       .  S
C1647      O1651   1.269       .  A
C1652      C1845   1.419       .  A
C1652      C1657   1.418       .  A
C1652      C1729   1.509       .  S
C1653      C1654   1.403       .  A
C1653      H1658   1.083       .  S
C1654      C1655   1.384       .  A
C1655      H1659   1.085       .  S
C1656      C1847   1.376       .  A
C1656      C1657   1.405       .  A
C1657      H1660   1.078       .  S
C1661      C1662   1.413       .  A
C1662      C1663   1.413       .  A
C1662      H1667   1.076       .  S
C1663      C1664   1.432       .  A
C1663      C1681   1.537       .  S
C1664      H1668   1.078       .  S
C1665      C1856   1.428       .  A
C1665      C1666   1.403       .  A
C1665      C1683   1.526       .  S
C1666      C1853   1.414   1_655  A
C1666      H1669   1.075   1_655  S
C1670      C1671   1.402       .  A
C1670      C1675   1.403       .  A
C1670      C1698   1.482       .  S
C1671      C1672   1.404       .  A
C1671      H1676   1.082       .  S
C1672      C1673   1.433       .  A
C1672      C1690   1.528       .  S
C1673      C1674   1.434       .  A
C1673      H1677   1.079       .  S
C1674      C1675   1.408       .  A
C1674      C1692   1.533       .  S
C1675      H1678   1.080       .  S
C1679      C1680   1.404       .  A
C1679      C1684   1.401       .  A
C1679      C1701   1.483       .  S
C1680      C1681   1.411       .  A
C1680      H1685   1.079       .  S
C1681      C1682   1.435       .  A
C1682      C1683   1.433       .  A
C1682      H1686   1.079       .  S
C1683      C1684   1.402       .  A
C1684      H1687   1.083       .  S
C1688      C1689   1.415       .  A
C1689      C1690   1.404       .  A
C1689      H1694   1.074   1_455  S
C1691      C1882   1.429       .  A
C1691      C1692   1.430       .  A
C1691      H1695   1.080       .  S
C1692      C1693   1.409       .  A
C1693      C1880   1.412   1_455  A
C1693      H1696   1.074       .  S
C1697      C1702   1.407       .  A
C1697      H1704   1.083       .  S
C1698      C1699   1.417   1_455  A
C1699      C1700   1.407       .  A
C1699      C1706   1.520       .  S
C1700      C1701   1.403       .  A
C1700      H1705   1.083       .  S
C1702      C1703   1.520       .  S
C1703      F1708   1.381       .  S
C1703      F1709   1.383       .  S
C1706      F1710   1.383       .  S
C1706      F1711   1.381       .  S
C1706      F1904   1.384       .  S
F1707      C1895   1.385       .  S
C1713      C1714   1.403       .  A
C1713      C1718   1.407   1_545  A
C1713      H1720   1.083       .  S
C1714      C1715   1.416       .  A
C1715      C1716   1.407   1_545  A
C1715      C1722   1.518       .  S
C1716      C1717   1.403       .  A
C1716      H1721   1.083       .  S
C1717      C1718   1.416       .  A
C1718      C1719   1.519       .  S
C1719      F1723   1.385       .  S
C1719      F1724   1.383       .  S
C1719      F1725   1.382       .  S
C1722      F1726   1.382       .  S
C1722      F1727   1.383       .  S
C1722      F1728   1.385       .  S
C1729      C1734   1.412       .  A
C1730      C1731   1.400       .  A
C1730      H1735   1.082       .  S
C1731      C1732   1.429       .  A
C1731      C1751   1.523       .  S
C1732      H1736   1.081       .  S
C1733      C1734   1.406       .  A
C1733      C1749   1.531       .  S
C1734      H1737   1.079       .  S
C1738      C1739   1.399       .  A
C1738      C1743   1.401       .  A
C1738      C1909   1.475       .  S
C1739      C1740   1.403       .  A
C1739      H1744   1.082       .  S
C1740      C1741   1.433       .  A
C1740      C1758   1.524       .  S
C1741      C1742   1.433       .  A
C1741      H1745   1.081       .  S
C1742      C1743   1.403       .  A
C1742      C1760   1.526       .  S
C1743      H1746   1.082       .  S
C1747      C1748   1.402       .  A
C1747      C1752   1.400       .  A
C1747      C1906   1.475       .  S
C1748      C1749   1.405       .  A
C1748      H1753   1.081       .  S
C1749      C1750   1.434       .  A
C1750      C1751   1.433       .  A
C1750      H1754   1.080       .  S
C1751      C1752   1.402       .  A
C1752      H1755   1.082       .  S
C1756      C1761   1.409   1_554  A
C1756      C1765   1.502   1_554  S
C1757      C1758   1.402       .  A
C1757      H1762   1.080       .  S
C1759      C1760   1.430   1_554  A
C1759      H1763   1.080       .  S
C1760      C1761   1.404       .  A
C1761      H1764   1.080       .  S
C1765      C1770   1.415       .  A
C1766      C1767   1.408       .  A
C1766      H1771   1.082       .  S
C1767      C1782   1.461       .  S
C1768      C1769   1.385       .  A
C1768      H1772   1.085       .  S
C1769      C1770   1.406       .  A
C1769      C1777   1.459       .  S
C1770      H1773   1.083       .  S
O1774      C1777   1.263       .  A
O1774     Cd1779   2.430       .  S
C1775      C1797   1.464       .  S
C1775      O1784   1.266       .  A
C1775      O1780   1.267       .  A
O1776      C1782   1.270       .  A
O1776     Cd1779   2.375       .  S
C1777      O1785   1.268       .  A
C1778      C1800   1.468       .  S
C1778      O1783   1.269       .  A
C1778      O1781   1.269       .  A
Cd1779     O1786   2.429       .  S
Cd1779     O1785   2.366       .  S
Cd1779     O1784   2.441       .  S
Cd1779     O1780   2.464       .  S
Cd1779     O1783   2.456       .  S
Cd1779     O1781   2.457       .  S
C1782      O1786   1.261       .  A
C1787      C1788   1.417       .  A
C1788      C1789   1.403       .  A
C1788      H1793   1.078       .  S
C1789      C1790   1.380       .  A
C1789      C1804   1.454       .  S
C1790      H1794   1.085       .  S
C1791      C1792   1.407       .  A
C1792      H1795   1.080       .  S
O1796     Cd1801   2.395       .  S
C1797      O1806   1.265       .  A
C1797      O1802   1.267       .  A
C1799      O1807   1.269       .  A
C1800      O1805   1.269       .  A
C1800      O1803   1.269       .  A
Cd1801     O1808   2.395       .  S
Cd1801     O1806   2.446       .  S
Cd1801     O1802   2.473       .  S
C1804      O1808   1.263       .  A
O1809     Cd1814   2.389       .  S
C1810      C1834   1.466       .  S
C1810      O1819   1.265       .  A
C1810      O1815   1.268       .  A
C1812      O1820   1.267       .  A
C1813      C1839   1.463       .  S
C1813      O1818   1.269       .  A
C1813      O1816   1.269       .  A
Cd1814     O1821   2.407       .  S
Cd1814     O1819   2.448   1_455  S
Cd1814     O1815   2.485   1_455  S
C1817      C1824   1.458       .  S
C1817      O1821   1.261       .  A
C1822      C1823   1.420       .  A
C1822      C1853   1.511       .  S
C1823      C1824   1.406       .  A
C1823      H1828   1.077       .  S
C1824      C1825   1.379       .  A
C1825      H1829   1.085       .  S
C1826      C1827   1.410       .  A
C1827      H1830   1.081       .  S
O1831      C1834   1.267       .  A
O1831     Cd1836   2.470       .  S
C1832      C1848   1.460       .  S
C1832      O1841   1.269       .  A
C1832      O1837   1.263       .  A
O1833      C1839   1.268       .  A
O1833     Cd1836   2.439       .  S
C1834      O1842   1.266       .  A
C1835      C1846   1.463       .  S
C1835      O1840   1.268       .  A
C1835      O1838   1.262       .  A
Cd1836     O1843   2.454       .  S
Cd1836     O1842   2.441       .  S
Cd1836     O1841   2.390       .  S
Cd1836     O1837   2.402       .  S
Cd1836     O1840   2.363       .  S
Cd1836     O1838   2.450       .  S
C1839      O1843   1.270       .  A
C1844      C1849   1.408       .  A
C1845      C1846   1.408       .  A
C1845      H1850   1.082       .  S
C1846      C1847   1.384       .  A
C1847      H1851   1.085       .  S
C1848      C1849   1.401       .  A
C1849      H1852   1.084       .  S
C1853      C1854   1.410   1_455  A
C1854      C1855   1.404       .  A
C1854      H1859   1.072   1_655  S
C1855      C1856   1.429       .  A
C1855      C1873   1.527       .  S
C1856      H1860   1.080       .  S
C1857      C1858   1.411       .  A
C1857      C1875   1.527       .  S
C1858      H1861   1.078   1_655  S
C1862      C1863   1.401       .  A
C1862      C1867   1.402       .  A
C1862      C1890   1.478       .  S
C1863      C1864   1.402       .  A
C1863      H1868   1.083       .  S
C1864      C1865   1.431       .  A
C1864      C1882   1.523       .  S
C1865      C1866   1.434       .  A
C1865      H1869   1.080       .  S
C1866      C1867   1.406       .  A
C1866      C1884   1.530       .  S
C1867      H1870   1.080       .  S
C1871      C1872   1.400       .  A
C1871      C1876   1.401       .  A
C1871      C1893   1.478       .  S
C1872      C1873   1.405       .  A
C1872      H1877   1.080       .  S
C1873      C1874   1.435       .  A
C1874      C1875   1.430       .  A
C1874      H1878   1.080       .  S
C1875      C1876   1.405       .  A
C1876      H1879   1.082       .  S
C1880      C1881   1.408   1_655  A
C1881      C1882   1.402       .  A
C1881      H1886   1.081   1_455  S
C1883      C1884   1.428       .  A
C1883      H1887   1.080       .  S
C1884      C1885   1.406       .  A
C1885      H1888   1.072       .  S
C1889      C1894   1.406       .  A
C1889      H1896   1.083       .  S
C1890      C1891   1.417   1_455  A
C1891      C1892   1.406       .  A
C1891      C1898   1.520       .  S
C1892      C1893   1.402       .  A
C1892      H1897   1.083       .  S
C1894      C1895   1.520       .  S
C1895      F1900   1.381       .  S
C1895      F1901   1.383       .  S
C1898      F1902   1.383       .  S
C1898      F1903   1.381       .  S
C1905      C1906   1.402       .  A
C1905      C1910   1.404   1_545  A
C1905      H1912   1.083       .  S
C1906      C1907   1.415       .  A
C1907      C1908   1.404   1_545  A
C1907      C1914   1.519       .  S
C1908      C1909   1.402       .  A
C1908      H1913   1.083       .  S
C1909      C1910   1.415       .  A
C1910      C1911   1.519       .  S
C1911      F1915   1.385       .  S
C1911      F1916   1.383       .  S
C1911      F1917   1.382       .  S
C1914      F1918   1.382       .  S
C1914      F1919   1.383       .  S
C1914      F1920   1.385       .  S
