geometry optimzed in LAMMPS
_audit_creation_date              2020-11-30 
_audit_creation_method            'lammps2cif' 
_symmetry_space_group_name_H-M    'P1' 
_symmetry_Int_Tables_number       1 
_symmetry_cell_setting            triclinic 
loop_ 
_symmetry_equiv_pos_as_xyz 
  x,y,z 
_cell_length_a                    27.74226439 
_cell_length_b                    27.83983087796604 
_cell_length_c                    41.26430340420456 
_cell_angle_alpha                 90.1821764124551 
_cell_angle_beta                  90.02137666482851 
_cell_angle_gamma                 90.02006984191951 
loop_ 
_atom_site_label 
_atom_site_type_symbol 
_atom_site_fract_x 
_atom_site_fract_y 
_atom_site_fract_z 
_atom_site_charge 
C1          C  0.31488614  0.18687990  0.86845744     0.81600
N2          N  0.35099168  0.21008246  0.85265301    -0.76700
C3          C  0.36389142  0.19668481  0.82223460     0.84000
N4          N  0.34043237  0.15991689  0.80743301    -0.76700
C5          C  0.30454310  0.13626135  0.82302089     0.84100
N6          N  0.29181441  0.14984163  0.85347001    -0.78400
C7          C  0.06633599  0.10695722  0.67528921     0.81600
N8          N  0.10270455  0.08411696  0.69109689    -0.76700
C9          C  0.11528722  0.09718860  0.72165926     0.84000
N10         N  0.09127035  0.13345638  0.73663629    -0.76700
C11         C  0.05518514  0.15692299  0.72106837     0.84100
N12         N  0.04275910  0.14352094  0.69048147    -0.78400
C13         C  0.13891229  0.35853855  0.86940501     0.81600
N14         N  0.16328396  0.39462505  0.85442023    -0.76700
C15         C  0.15164908  0.40768010  0.82369138     0.84000
N16         N  0.11559346  0.38440958  0.80784617    -0.76700
C17         C  0.09099159  0.34854000  0.82266110     0.84100
N18         N  0.10278947  0.33576333  0.85330755    -0.78400
C19         C  0.39209727  0.43534142  0.67564260     0.81600
N20         N  0.41535544  0.39846669  0.69053374    -0.76700
C21         C  0.40268334  0.38490559  0.72095198     0.84000
N22         N  0.36670413  0.40840757  0.73662127    -0.76700
C23         C  0.34298446  0.44491258  0.72191888     0.84100
N24         N  0.35579481  0.45829088  0.69152212    -0.78400
O25         O  0.02900923  0.28938866  0.81876227    -0.56500
C26         C  0.40273976  0.22193729  0.80528495     0.76200
O27         O  0.46008625  0.32086164  0.72321844    -0.57600
C28         C  0.05271634  0.32275227  0.80541569     0.76100
C29         C  0.02931603  0.19597122  0.73759662     0.78500
Cd30       Cd  0.47861445  0.27118456  0.77126529     1.37500
O31         O  0.42758423  0.25426024  0.81899575    -0.56500
O32         O  0.03775010  0.20627201  0.76691927    -0.55300
C33         C  0.42832612  0.34594029  0.73736887     0.78500
O34         O  0.99750370  0.22083461  0.72342707    -0.57600
O35         O  0.41304831  0.21232865  0.77614388    -0.56100
O36         O  0.04202842  0.33254649  0.77640031    -0.56100
O37         O  0.41972204  0.33604675  0.76667197    -0.55300
O38         O  0.27888420  0.50195467  0.72538222    -0.56500
C39         C  0.15400832  0.07163520  0.73868541     0.76200
O40         O  0.21106702  0.46999660  0.82128387    -0.57600
C41         C  0.30442136  0.47036301  0.73913151     0.76100
C42         C  0.27920514  0.09688786  0.80661578     0.78500
Cd43       Cd  0.22925246  0.02112775  0.77286792     1.37500
O44         O  0.17970477  0.04025418  0.72469097    -0.56500
O45         O  0.28892240  0.08566942  0.77764819    -0.55300
C46         C  0.17831518  0.44604805  0.80724703     0.78500
O47         O  0.24656780  0.07272296  0.82047767    -0.57600
O48         O  0.16316019  0.07979145  0.76821089    -0.56100
O49         O  0.29524498  0.46187904  0.76857766    -0.56100
O50         O  0.16953434  0.45669457  0.77808717    -0.55300
C51         C  0.20799125  0.28952360  0.99274643     0.03600
C52         C  0.24423799  0.25377349  0.99239075     0.03600
C53         C  0.26186247  0.23569240  0.02175779    -0.16900
C54         C  0.24462299  0.25324438  0.05140795     0.03600
C55         C  0.20851344  0.28903877  0.05167342     0.03600
C56         C  0.19071863  0.30694725  0.02237510    -0.16900
H57         H  0.16266723  0.33408565  0.02263865     0.05600
H58         H  0.28999922  0.20865043  0.02154255     0.05600
C59         C  0.46217910  0.00224638  0.55104670     0.03600
C60         C  0.49753263  0.03886259  0.55084319     0.03600
C61         C  0.01518250  0.05595673  0.52117560    -0.16900
C62         C  0.49719124  0.03824893  0.49170070     0.03600
C63         C  0.46126017  0.00205102  0.49192013     0.03600
C64         C  0.44342425  0.48518340  0.52203081    -0.16900
H65         H  0.41486342  0.45856981  0.52221255     0.05600
H66         H  0.04330573  0.08302615  0.52110785     0.05600
C67         C  0.31725051  0.18471828  0.17430287     0.81600
N68         N  0.29479488  0.14734326  0.18915874    -0.76700
C69         C  0.30880107  0.13289052  0.21910580     0.84000
N70         N  0.34528011  0.15616637  0.23442999    -0.76700
C71         C  0.36805725  0.19339736  0.21983909     0.84100
N72         N  0.35392567  0.20759533  0.18986930    -0.78400
C73         C  0.06710483  0.10710740  0.36787563     0.81600
N74         N  0.04418477  0.14438532  0.35318847    -0.76700
C75         C  0.05779198  0.15900015  0.32315311     0.84000
N76         N  0.09450460  0.13618113  0.30773584    -0.76700
C77         C  0.11784919  0.09921702  0.32226374     0.84100
N78         N  0.10392586  0.08470313  0.35220329    -0.78400
C79         C  0.13902205  0.35967905  0.17477538     0.81600
N80         N  0.16217448  0.39669800  0.18964581    -0.76700
C81         C  0.14904192  0.41092980  0.21986322     0.84000
N82         N  0.11270754  0.38783718  0.23542135    -0.76700
C83         C  0.08922294  0.35098114  0.22071373     0.84100
N84         N  0.10252451  0.33704310  0.19050442    -0.78400
C85         C  0.38845149  0.43435243  0.36903365     0.81600
N86         N  0.35236175  0.45747900  0.35317847    -0.76700
C87         C  0.33906914  0.44354151  0.32293295     0.84000
N88         N  0.36227833  0.40648867  0.30830270    -0.76700
C89         C  0.39835139  0.38309202  0.32387811     0.84100
N90         N  0.41138323  0.39711192  0.35420168    -0.78400
O91         O  0.02862728  0.29043291  0.22473500    -0.56500
C92         C  0.40601752  0.21960752  0.23716127     0.76200
O93         O  0.99815451  0.22102620  0.32032965    -0.57600
C94         C  0.05136062  0.32468265  0.23795001     0.76100
C95         C  0.42475153  0.34471207  0.30715337     0.78500
Cd96       Cd  0.47835204  0.27224707  0.27256018     1.37900
O97         O  0.42914013  0.25362713  0.22413485    -0.56500
O98         O  0.41498338  0.33327885  0.27821626    -0.55300
C99         C  0.03165085  0.19773163  0.30664682     0.78500
O100        O  0.45885563  0.32208989  0.32058309    -0.57600
O101        O  0.41667190  0.20967707  0.26616366    -0.56100
O102        O  0.04035947  0.33462665  0.26692804    -0.56100
O103        O  0.04115873  0.20894246  0.27768356    -0.55300
O104        O  0.17961545  0.03971281  0.31813467    -0.56500
C105        C  0.30126417  0.46964847  0.30554946     0.76200
O106        O  0.20992095  0.47150080  0.22284615    -0.57600
C107        C  0.15657223  0.07378952  0.30511851     0.76100
C108        C  0.28293241  0.09421854  0.23573178     0.78500
Cd109      Cd  0.22999708  0.02160890  0.27030862     1.37500
O110        O  0.27939780  0.50488489  0.31821288    -0.56500
O111        O  0.29335047  0.08255767  0.26447315    -0.55300
C112        C  0.17561554  0.44928897  0.23638188     0.78500
O113        O  0.24860405  0.07160824  0.22242494    -0.57600
O114        O  0.28937434  0.45833478  0.27694399    -0.56100
O115        O  0.16808641  0.08444090  0.27638196    -0.56100
O116        O  0.16573557  0.46118883  0.26519122    -0.55300
C117        C  0.01333073  0.10487067  0.45259681     0.24900
C118        C  0.01822464  0.05621768  0.46084502    -0.23200
C119        C  0.54118560  0.02570808  0.43925938     0.19900
C120        C  0.05672560  0.04122901  0.40880649     0.24900
C121        C  0.05108181  0.08987065  0.40015368    -0.23100
C122        C  0.02943525  0.12156215  0.42252304     0.19800
F123        F  0.02399624  0.16883195  0.41542715    -0.13100
F124        F  0.99132474  0.13590742  0.47327537    -0.15400
F125        F  0.57755750  0.01043202  0.38835194    -0.15400
F126        F  0.54859801  0.97900641  0.44722544    -0.13100
C127        C  0.44217107  0.43547866  0.45366560     0.24900
C128        C  0.43896069  0.48437977  0.46183932    -0.23200
C129        C  0.41631227  0.01496482  0.44000537     0.19900
C130        C  0.39979510  0.49993766  0.41020620     0.24900
C131        C  0.40423649  0.45115293  0.40147048    -0.23100
C132        C  0.42495559  0.41896092  0.42376711     0.19800
F133        F  0.42839396  0.37140866  0.41674387    -0.13100
F134        F  0.46349084  0.40398370  0.47423301    -0.15400
F135        F  0.37992492  0.03079530  0.38926480    -0.15400
F136        F  0.40970548  0.06179286  0.44813213    -0.13100
C137        C  0.16270406  0.27751455  0.10310673     0.24900
C138        C  0.18854709  0.30782980  0.08234719    -0.23200
C139        C  0.19673521  0.35573478  0.09136759     0.19900
C140        C  0.18048686  0.37287369  0.12129835     0.24900
C141        C  0.15508805  0.34236179  0.14253671    -0.23100
C142        C  0.14621643  0.29447796  0.13294978     0.19800
F143        F  0.12300367  0.26335232  0.15283471    -0.13100
F144        F  0.15369560  0.23125383  0.09452381    -0.15400
F145        F  0.18964692  0.41931261  0.12934882    -0.15400
F146        F  0.22177697  0.38548570  0.07150888    -0.13100
C147        C  0.25741263  0.18726072  0.09141240     0.24900
C148        C  0.26566526  0.23485171  0.08188979    -0.23200
C149        C  0.29238907  0.26545562  0.10212291     0.19900
C150        C  0.30976089  0.24909397  0.13188898     0.24900
C151        C  0.30055996  0.20160398  0.14206522    -0.23100
C152        C  0.27430617  0.17081544  0.12131846     0.19800
F153        F  0.26497265  0.12466807  0.12981044    -0.13100
F154        F  0.23162581  0.15713236  0.07212189    -0.15400
F155        F  0.33431855  0.28038768  0.15105429    -0.15400
F156        F  0.30136302  0.31145371  0.09308929    -0.13100
C157        C  0.39893566  0.49941053  0.63304166     0.24900
C158        C  0.40746149  0.45171501  0.64299021    -0.23200
C159        C  0.43182829  0.42034891  0.62165679     0.19900
C160        C  0.44819087  0.43665026  0.59154390     0.24900
C161        C  0.44085271  0.48455755  0.58226157    -0.23100
C162        C  0.41347425  0.01382308  0.60137643     0.19800
F163        F  0.40194435  0.05875368  0.59130969    -0.13100
F164        F  0.37094701  0.02893336  0.64999536    -0.15400
F165        F  0.47250939  0.40600985  0.57179135    -0.15400
F166        F  0.43976320  0.37379915  0.62979800    -0.13100
C167        C  0.14367111  0.29465175  0.91214134     0.24900
C168        C  0.15326906  0.34218123  0.90219982    -0.23200
C169        C  0.17807775  0.37314377  0.92356078     0.19900
C170        C  0.19446186  0.35638768  0.95351585     0.24900
C171        C  0.18696990  0.30837258  0.96242677    -0.23100
C172        C  0.16058282  0.27796536  0.94190549     0.19800
F173        F  0.15162382  0.23181990  0.95060905    -0.13100
F174        F  0.11932050  0.26356702  0.89270319    -0.15400
F175        F  0.21921076  0.38655286  0.97338698    -0.15400
F176        F  0.18647197  0.41967108  0.91557656    -0.13100
C177        C  0.02428044  0.12104950  0.62186043     0.24900
C178        C  0.05130599  0.09073378  0.64236344    -0.23200
C179        C  0.06293305  0.04410941  0.63126109     0.19900
C180        C  0.04658654  0.02784066  0.60112733     0.24900
C181        C  0.01833004  0.05755564  0.58142085    -0.23100
C182        C  0.50772500  0.10467881  0.59183271     0.19800
F183        F  0.48072631  0.13419517  0.57300544    -0.13100
F184        F  0.51271934  0.16651487  0.63132989    -0.15400
F185        F  0.05813185  0.98275779  0.59118435    -0.15400
F186        F  0.08900650  0.01345760  0.64983236    -0.13100
C187        C  0.30684051  0.25112809  0.91097744     0.24900
C188        C  0.29949994  0.20311977  0.90113026    -0.23200
C189        C  0.27613437  0.17131078  0.92253293     0.19900
C190        C  0.25925437  0.18755955  0.95256032     0.24900
C191        C  0.26501045  0.23583779  0.96161720    -0.23100
C192        C  0.28970810  0.26723746  0.94090463     0.19800
F193        F  0.29704345  0.31372761  0.94963428    -0.13100
F194        F  0.32931689  0.28309899  0.89132269    -0.15400
F195        F  0.23604995  0.15646101  0.97247678    -0.15400
F196        F  0.26984147  0.12436362  0.91458265    -0.13100
C197        C  0.31742591  0.68536737  0.86924943     0.81600
N198        N  0.35313771  0.70884415  0.85325136    -0.76700
C199        C  0.36555101  0.69578159  0.82268836     0.84000
N200        N  0.34199271  0.65903741  0.80791865    -0.76700
C201        C  0.30644728  0.63512755  0.82369703     0.84100
N202        N  0.29419947  0.64841265  0.85429000    -0.78400
C203        C  0.06763592  0.60664424  0.67552046     0.81600
N204        N  0.10389763  0.58382506  0.69144284    -0.76700
C205        C  0.11633730  0.59709349  0.72199604     0.84000
N206        N  0.09221224  0.63340306  0.73683401    -0.76700
C207        C  0.05618140  0.65675808  0.72113610     0.84100
N208        N  0.04394326  0.64326345  0.69054251    -0.78400
C209        C  0.14178354  0.85659388  0.86848089     0.81600
N210        N  0.16566668  0.89302249  0.85349050    -0.76700
C211        C  0.15339409  0.90639613  0.82292853     0.84000
N212        N  0.11718904  0.88312629  0.80726372    -0.76700
C213        C  0.09305241  0.84695013  0.82206609     0.84100
N214        N  0.10546844  0.83383515  0.85254690    -0.78400
C215        C  0.39266145  0.93542794  0.67537874     0.81600
N216        N  0.41580415  0.89872499  0.69053138    -0.76700
C217        C  0.40300083  0.88546274  0.72097851     0.84000
N218        N  0.36697247  0.90914443  0.73647163    -0.76700
C219        C  0.34332055  0.94550592  0.72153668     0.84100
N220        N  0.35625941  0.95852653  0.69108386    -0.78400
O221        O  0.03038366  0.78845552  0.81849630    -0.56500
C222        C  0.40383775  0.72154653  0.80553554     0.76200
O223        O  0.45991751  0.82105723  0.72329175    -0.57600
C224        C  0.05431676  0.82155179  0.80503438     0.76100
C225        C  0.03015121  0.69573502  0.73756347     0.78500
Cd226      Cd  0.47886887  0.77155791  0.77126662     1.37500
O227        O  0.42824062  0.75435562  0.81908639    -0.56500
O228        O  0.03879313  0.70634235  0.76680148    -0.55300
C229        C  0.42852120  0.84650073  0.73750668     0.78500
O230        O  0.99801272  0.72021359  0.72341279    -0.57600
O231        O  0.41405896  0.71195380  0.77638118    -0.56100
O232        O  0.04337463  0.83153367  0.77609009    -0.56100
O233        O  0.42020894  0.83693180  0.76690457    -0.55300
O234        O  0.27889280  0.00238230  0.72464547    -0.56500
C235        C  0.15494423  0.57164138  0.73918192     0.76200
O236        O  0.21205229  0.96943070  0.82040483    -0.57600
C237        C  0.30457551  0.97103870  0.73855189     0.76100
C238        C  0.28068833  0.59602361  0.80729618     0.78500
Cd239      Cd  0.22968233  0.52087856  0.77360633     1.37500
O240        O  0.18041791  0.53991799  0.72537778    -0.56500
O241        O  0.28997728  0.58493940  0.77824413    -0.55300
C242        C  0.17926374  0.94534817  0.80651791     0.78500
O243        O  0.24799991  0.57203464  0.82124248    -0.57600
O244        O  0.16419143  0.58018110  0.76864951    -0.56100
O245        O  0.29533538  0.96276964  0.76801006    -0.56100
O246        O  0.16967320  0.95642489  0.77754067    -0.55300
C247        C  0.20969085  0.78870120  0.99259807     0.03600
C248        C  0.24580825  0.75282213  0.99264680     0.03600
C249        C  0.26295679  0.73495990  0.02216020    -0.16900
C250        C  0.24534067  0.75275139  0.05161483     0.03600
C251        C  0.20928716  0.78861903  0.05158320     0.03600
C252        C  0.19200833  0.80641627  0.02207586    -0.16900
H253        H  0.16403355  0.83362813  0.02205165     0.05600
H254        H  0.29104735  0.70786350  0.02221684     0.05600
C255        C  0.46142714  0.50281130  0.55149848     0.03600
C256        C  0.49795755  0.53831368  0.55131577     0.03600
C257        C  0.01535375  0.55552447  0.52171777    -0.16900
C258        C  0.49784814  0.53756059  0.49212973     0.03600
C259        C  0.46077542  0.50251487  0.49234806     0.03600
C260        C  0.44458630  0.98409373  0.52161258    -0.16900
H261        H  0.41683161  0.95664937  0.52183350     0.05600
H262        H  0.04368730  0.58237501  0.52157220     0.05600
C263        C  0.31774161  0.68395833  0.17438237     0.81600
N264        N  0.29488849  0.64688921  0.18928405    -0.76700
C265        C  0.30876556  0.63235772  0.21922372     0.84000
N266        N  0.34552859  0.65523591  0.23450465    -0.76700
C267        C  0.36869777  0.69217281  0.21985840     0.84100
N268        N  0.35467995  0.70647539  0.18989096    -0.78400
C269        C  0.06604717  0.60700793  0.36817939     0.81600
N270        N  0.04307713  0.64428726  0.35350179    -0.76700
C271        C  0.05673864  0.65897783  0.32348576     0.84000
N272        N  0.09350576  0.63625948  0.30809142    -0.76700
C273        C  0.11687793  0.59932068  0.32258364     0.84100
N274        N  0.10294587  0.58471329  0.35250282    -0.78400
C275        C  0.13957122  0.85917104  0.17476474     0.81600
N276        N  0.16281426  0.89613166  0.18964605    -0.76700
C277        C  0.14978588  0.91033338  0.21989714     0.84000
N278        N  0.11343238  0.88727381  0.23547215    -0.76700
C279        C  0.08982119  0.85048854  0.22075632     0.84100
N280        N  0.10304617  0.83657243  0.19051306    -0.78400
C281        C  0.38951622  0.93308132  0.36858764     0.81600
N282        N  0.35349279  0.95626484  0.35271093    -0.76700
C283        C  0.34012638  0.94234783  0.32248228     0.84000
N284        N  0.36315339  0.90512971  0.30788808    -0.76700
C285        C  0.39913738  0.88162030  0.32350909     0.84100
N286        N  0.41227571  0.89571809  0.35379390    -0.78400
O287        O  0.02844885  0.79061501  0.22463844    -0.56500
C288        C  0.40683603  0.71810271  0.23715795     0.76200
O289        O  0.99731125  0.72122063  0.32052685    -0.57600
C290        C  0.05175436  0.82437248  0.23797975     0.76100
C291        C  0.42545989  0.84309089  0.30688835     0.78500
Cd292      Cd  0.47922120  0.77053914  0.27253526     1.37900
O293        O  0.43016493  0.75196005  0.22410625    -0.56500
O294        O  0.41546940  0.83124410  0.27806254    -0.55300
C295        C  0.03076632  0.69775417  0.30693355     0.78500
O296        O  0.45978308  0.82078407  0.32031069    -0.57600
O297        O  0.41739407  0.70814493  0.26617208    -0.56100
O298        O  0.04108487  0.83403105  0.26706035    -0.56100
O299        O  0.04049391  0.70887138  0.27798527    -0.55300
O300        O  0.17852567  0.53977714  0.31826055    -0.56500
C301        C  0.30243557  0.96871909  0.30513102     0.76200
O302        O  0.21063447  0.97098309  0.22277184    -0.57600
C303        C  0.15561816  0.57404520  0.30538216     0.76100
C304        C  0.28243638  0.59408681  0.23588145     0.78500
Cd305      Cd  0.22895522  0.52207264  0.27046019     1.37500
O306        O  0.28053244  0.00381578  0.31795172    -0.56500
O307        O  0.29287984  0.58223689  0.26457638    -0.55300
C308        C  0.17642877  0.94871808  0.23638687     0.78500
O309        O  0.24768142  0.57203637  0.22264827    -0.57600
O310        O  0.29066033  0.95781347  0.27643518    -0.56100
O311        O  0.16726457  0.58502303  0.27671988    -0.56100
O312        O  0.16670539  0.96061590  0.26522492    -0.55300
C313        C  0.01216889  0.60449554  0.45291931     0.24900
C314        C  0.01794553  0.55602083  0.46136171    -0.23200
C315        C  0.54040659  0.52413001  0.43914705     0.19900
C316        C  0.05645507  0.54121111  0.40930268     0.24900
C317        C  0.05012058  0.58971959  0.40049376    -0.23100
C318        C  0.02797637  0.62122224  0.42277519     0.19800
F319        F  0.02172430  0.66833763  0.41552386    -0.13100
F320        F  0.98956885  0.63528453  0.47347570    -0.15400
F321        F  0.57464820  0.50838088  0.38758740    -0.15400
F322        F  0.54596697  0.47698644  0.44659364    -0.13100
C323        C  0.44436485  0.93486556  0.45294929     0.24900
C324        C  0.43980730  0.98355935  0.46138580    -0.23200
C325        C  0.41653325  0.51621158  0.44022560     0.19900
C326        C  0.39981788  0.99857036  0.40996550     0.24900
C327        C  0.40540476  0.94998863  0.40099656    -0.23100
C328        C  0.42725631  0.91815834  0.42306074     0.19800
F329        F  0.43191212  0.87077416  0.41583735    -0.13100
F330        F  0.46678716  0.90378102  0.47326931    -0.15400
F331        F  0.38087984  0.53241253  0.38927283    -0.15400
F332        F  0.41129979  0.56331481  0.44808251    -0.13100
C333        C  0.16341519  0.77705960  0.10305510     0.24900
C334        C  0.18892002  0.80750125  0.08216486    -0.23200
C335        C  0.19666639  0.85552686  0.09110029     0.19900
C336        C  0.18040610  0.87262269  0.12106159     0.24900
C337        C  0.15553200  0.84192567  0.14246129    -0.23100
C338        C  0.14706451  0.79394199  0.13296656     0.19800
F339        F  0.12444474  0.76263881  0.15303240    -0.13100
F340        F  0.15464685  0.73072348  0.09455228    -0.15400
F341        F  0.18904393  0.91920397  0.12899544    -0.15400
F342        F  0.22130967  0.88545399  0.07114023    -0.13100
C343        C  0.25769141  0.68684060  0.09165649     0.24900
C344        C  0.26604767  0.73442814  0.08218253    -0.23200
C345        C  0.29298329  0.76491532  0.10235710     0.19900
C346        C  0.31044384  0.74843175  0.13206308     0.24900
C347        C  0.30110266  0.70095551  0.14219781    -0.23100
C348        C  0.27466008  0.67028414  0.12149209     0.19800
F349        F  0.26525072  0.62413431  0.12994586    -0.13100
F350        F  0.23179957  0.65680771  0.07235986    -0.15400
F351        F  0.33524027  0.77956775  0.15120588    -0.15400
F352        F  0.30217719  0.81085460  0.09328574    -0.13100
C353        C  0.39690460  0.99795761  0.63147441     0.24900
C354        C  0.40826924  0.95141713  0.64262205    -0.23200
C355        C  0.43579698  0.92096713  0.62239019     0.19900
C356        C  0.45232686  0.93709938  0.59226759     0.24900
C357        C  0.44195075  0.98387904  0.58184157    -0.23100
C358        C  0.41528088  0.51548556  0.60293387     0.19800
F359        F  0.40639921  0.56152635  0.59399185    -0.13100
F360        F  0.37617367  0.53119809  0.65280918    -0.15400
F361        F  0.47964688  0.90747800  0.57361652    -0.15400
F362        F  0.44679027  0.87549192  0.63160553    -0.13100
C363        C  0.14634432  0.79304802  0.91155512     0.24900
C364        C  0.15636613  0.84035536  0.90130194    -0.23200
C365        C  0.18142667  0.87137275  0.92250804     0.19900
C366        C  0.19736184  0.85497813  0.95267732     0.24900
C367        C  0.18921652  0.80723884  0.96198745    -0.23100
C368        C  0.16286336  0.77669958  0.94152415     0.19800
F369        F  0.15349693  0.73075445  0.95051145    -0.13100
F370        F  0.12181172  0.76188001  0.89228139    -0.15400
F371        F  0.22226841  0.88523361  0.97239305    -0.15400
F372        F  0.19041513  0.91766300  0.91420469    -0.13100
C373        C  0.02942440  0.62178978  0.62107452     0.24900
C374        C  0.05267392  0.59023104  0.64271376    -0.23200
C375        C  0.06046570  0.54225791  0.63293462     0.19900
C376        C  0.04387133  0.52591779  0.60288661     0.24900
C377        C  0.01909828  0.55695930  0.58197552    -0.23100
C378        C  0.51130230  0.60505713  0.59120637     0.19800
F379        F  0.48711985  0.63549753  0.57135204    -0.13100
F380        F  0.51913841  0.66813530  0.62964527    -0.15400
F381        F  0.05170888  0.47948500  0.59423504    -0.15400
F382        F  0.08276135  0.51047752  0.65281625    -0.13100
C383        C  0.30991000  0.74949240  0.91186871     0.24900
C384        C  0.30227438  0.70154754  0.90196935    -0.23200
C385        C  0.27858429  0.66985724  0.92329197     0.19900
C386        C  0.26136178  0.68627044  0.95318397     0.24900
C387        C  0.26709061  0.73459126  0.96214516    -0.23100
C388        C  0.29242672  0.76575474  0.94164628     0.19800
F389        F  0.30001986  0.81217746  0.95043812    -0.13100
F390        F  0.33296814  0.78129574  0.89239737    -0.15400
F391        F  0.23787022  0.65530581  0.97304587    -0.15400
F392        F  0.27222410  0.62290681  0.91536875    -0.13100
C393        C  0.81448545  0.18738796  0.86841318     0.81600
N394        N  0.85056848  0.21063578  0.85261069    -0.76700
C395        C  0.86356622  0.19717015  0.82222267     0.84000
N396        N  0.84023975  0.16029709  0.80745465    -0.76700
C397        C  0.80438424  0.13659522  0.82303537     0.84100
N398        N  0.79154720  0.15023614  0.85345326    -0.78400
C399        C  0.56658065  0.10688734  0.67529200     0.81600
N400        N  0.60303511  0.08404416  0.69102364    -0.76700
C401        C  0.61572028  0.09710065  0.72157744     0.84000
N402        N  0.59172949  0.13333245  0.73660987    -0.76700
C403        C  0.55556110  0.15676449  0.72111918     0.84100
N404        N  0.54302949  0.14338518  0.69055746    -0.78400
C405        C  0.63855052  0.35906077  0.86953272     0.81600
N406        N  0.66279868  0.39524622  0.85455833    -0.76700
C407        C  0.65118486  0.40820685  0.82380278     0.84000
N408        N  0.61529424  0.38473307  0.80792236    -0.76700
C409        C  0.59082560  0.34876875  0.82272935     0.84100
N410        N  0.60258899  0.33610467  0.85339613    -0.78400
C411        C  0.89129758  0.43545965  0.67562791     0.81600
N412        N  0.91459520  0.39862376  0.69052389    -0.76700
C413        C  0.90207569  0.38521192  0.72100027     0.84000
N414        N  0.86617181  0.40880329  0.73670255    -0.76700
C415        C  0.84239113  0.44525946  0.72197124     0.84100
N416        N  0.85509092  0.45851852  0.69152823    -0.78400
O417        O  0.52922250  0.28923689  0.81880028    -0.56500
C418        C  0.90242168  0.22239747  0.80527123     0.76200
O419        O  0.95946970  0.32115383  0.72320570    -0.57600
C420        C  0.55274037  0.32274589  0.80546360     0.76100
C421        C  0.52970223  0.19575847  0.73767950     0.78500
Cd422      Cd  0.97831834  0.27152688  0.77121999     1.37500
O423        O  0.92728187  0.25471714  0.81896994    -0.56500
O424        O  0.53836079  0.20623309  0.76694552    -0.55300
C425        C  0.92783716  0.34631410  0.73742164     0.78500
O426        O  0.49765452  0.22039893  0.72357671    -0.57600
O427        O  0.91273288  0.21274367  0.77613655    -0.56100
O428        O  0.54202753  0.33248203  0.77644547    -0.56100
O429        O  0.91948236  0.33655376  0.76677726    -0.55300
O430        O  0.77817233  0.50218795  0.72535303    -0.56500
C431        C  0.65447339  0.07156526  0.73858302     0.76200
O432        O  0.71033905  0.47078477  0.82138299    -0.57600
C433        C  0.80385354  0.47077944  0.73917688     0.76100
C434        C  0.77923805  0.09708489  0.80664834     0.78500
Cd435      Cd  0.72962945  0.02112342  0.77288377     1.37500
O436        O  0.68007837  0.04006416  0.72463379    -0.56500
O437        O  0.78904495  0.08586979  0.77769232    -0.55300
C438        C  0.67776325  0.44661655  0.80733324     0.78500
O439        O  0.74669383  0.07279385  0.82050692    -0.57600
O440        O  0.66372173  0.07986934  0.76807580    -0.56100
O441        O  0.79482581  0.46253359  0.76867588    -0.56100
O442        O  0.66910178  0.45705201  0.77812265    -0.55300
C443        C  0.70768926  0.28989998  0.99281728     0.03600
C444        C  0.74389638  0.25410906  0.99243304     0.03600
C445        C  0.76149364  0.23596311  0.02179443    -0.16900
C446        C  0.74426461  0.25349564  0.05145848     0.03600
C447        C  0.70817479  0.28931041  0.05173559     0.03600
C448        C  0.69041000  0.30727615  0.02245011    -0.16900
H449        H  0.66238064  0.33443750  0.02272628     0.05600
H450        H  0.78960965  0.20890100  0.02156473     0.05600
C451        C  0.96181892  0.00257298  0.55098786     0.03600
C452        C  0.99775327  0.03861914  0.55080580     0.03600
C453        C  0.51454657  0.05657144  0.52120581    -0.16900
C454        C  0.99757266  0.03793398  0.49164828     0.03600
C455        C  0.96088812  0.00248152  0.49185156     0.03600
C456        C  0.94357053  0.48488241  0.52213521    -0.16900
H457        H  0.91515046  0.45811991  0.52229058     0.05600
H458        H  0.54220476  0.08411236  0.52111062     0.05600
C459        C  0.81686238  0.18491334  0.17434515     0.81600
N460        N  0.79413044  0.14775793  0.18925031    -0.76700
C461        C  0.80807221  0.13324283  0.21918983     0.84000
N462        N  0.84477644  0.15623289  0.23446518    -0.76700
C463        C  0.86784706  0.19324534  0.21982764     0.84100
N464        N  0.85377240  0.20751760  0.18985374    -0.78400
C465        C  0.56633769  0.10803408  0.36795421     0.81600
N466        N  0.54351810  0.14539214  0.35328677    -0.76700
C467        C  0.55720634  0.16005585  0.32327760     0.84000
N468        N  0.59385837  0.13717287  0.30784178    -0.76700
C469        C  0.61707957  0.10010749  0.32233198     0.84100
N470        N  0.60311578  0.08559079  0.35225870    -0.78400
C471        C  0.63870670  0.36004097  0.17479434     0.81600
N472        N  0.66216548  0.39682048  0.18970841    -0.76700
C473        C  0.64918956  0.41105480  0.21995049     0.84000
N474        N  0.61268669  0.38820898  0.23549478    -0.76700
C475        C  0.58889647  0.35158315  0.22074534     0.84100
N476        N  0.60205803  0.33762658  0.19050859    -0.78400
C477        C  0.88967018  0.43399142  0.36884182     0.81600
N478        N  0.85355991  0.45710191  0.35299305    -0.76700
C479        C  0.84020948  0.44315733  0.32276252     0.84000
N480        N  0.86333929  0.40604712  0.30814376    -0.76700
C481        C  0.89940693  0.38262780  0.32371355     0.84100
N482        N  0.91252874  0.39670082  0.35401113    -0.78400
O483        O  0.52798290  0.29137094  0.22475938    -0.56500
C484        C  0.90608243  0.21913549  0.23711388     0.76200
O485        O  0.49754200  0.22203424  0.32041496    -0.57600
C486        C  0.55091246  0.32547542  0.23798695     0.76100
C487        C  0.92561727  0.34406921  0.30703698     0.78500
Cd488      Cd  0.97886276  0.27129345  0.27248677     1.37900
O489        O  0.92973425  0.25270369  0.22398433    -0.56500
O490        O  0.91568243  0.33250642  0.27814894    -0.55300
C491        C  0.53114221  0.19882939  0.30677886     0.78500
O492        O  0.95969266  0.32139229  0.32046171    -0.57600
O493        O  0.91645553  0.20937600  0.26619161    -0.56100
O494        O  0.54002532  0.33540994  0.26698750    -0.56100
O495        O  0.54079712  0.21013074  0.27785353    -0.55300
O496        O  0.67847451  0.04024415  0.31809254    -0.56500
C497        C  0.80235433  0.46926311  0.30541741     0.76200
O498        O  0.71060913  0.47105444  0.22295078    -0.57600
C499        C  0.65566756  0.07453653  0.30514695     0.76100
C500        C  0.78200712  0.09471260  0.23580907     0.78500
Cd501      Cd  0.72894803  0.02218459  0.27030344     1.37500
O502        O  0.78048027  0.50445954  0.31812457    -0.56500
O503        O  0.79250078  0.08286742  0.26450170    -0.55300
C504        C  0.67608402  0.44917099  0.23647960     0.78500
O505        O  0.74747732  0.07237145  0.22252739    -0.57600
O506        O  0.79040859  0.45798369  0.27681528    -0.56100
O507        O  0.66729123  0.08527066  0.27644468    -0.56100
O508        O  0.66625713  0.46120174  0.26527237    -0.55300
C509        C  0.51133781  0.10519205  0.45236538     0.24900
C510        C  0.51751769  0.05679664  0.46088659    -0.23200
C511        C  0.04081981  0.02473221  0.43893829     0.19900
C512        C  0.55703614  0.04230688  0.40914831     0.24900
C513        C  0.55024034  0.09070700  0.40021848    -0.23100
C514        C  0.52739807  0.12202094  0.42231020     0.19800
F515        F  0.52073280  0.16905421  0.41497782    -0.13100
F516        F  0.48815724  0.13579281  0.47275667    -0.15400
F517        F  0.07607805  0.00907921  0.38769426    -0.15400
F518        F  0.04708757  0.97776385  0.44663367    -0.13100
C519        C  0.94394955  0.43532389  0.45337536     0.24900
C520        C  0.93932286  0.48395689  0.46191835    -0.23200
C521        C  0.91660019  0.01597756  0.43969859     0.19900
C522        C  0.89969481  0.49928116  0.41042427     0.24900
C523        C  0.90538253  0.45075222  0.40133127    -0.23100
C524        C  0.92711442  0.41880233  0.42337387     0.19800
F525        F  0.93195582  0.37148541  0.41601030    -0.13100
F526        F  0.96628058  0.40415333  0.47368247    -0.15400
F527        F  0.88098696  0.03205599  0.38871783    -0.15400
F528        F  0.91102880  0.06303459  0.44757147    -0.13100
C529        C  0.66220269  0.27785955  0.10311225     0.24900
C530        C  0.68820850  0.30811080  0.08240154    -0.23200
C531        C  0.69646675  0.35599998  0.09142664     0.19900
C532        C  0.68016869  0.37317331  0.12133112     0.24900
C533        C  0.65466031  0.34271210  0.14254062    -0.23100
C534        C  0.64565662  0.29486456  0.13293300     0.19800
F535        F  0.62226546  0.26381797  0.15277972    -0.13100
F536        F  0.65307789  0.23163425  0.09449709    -0.15400
F537        F  0.68938106  0.41960116  0.12938579    -0.15400
F538        F  0.72161384  0.38570348  0.07159530    -0.13100
C539        C  0.75708482  0.18748324  0.09144464     0.24900
C540        C  0.76531062  0.23508726  0.08193951    -0.23200
C541        C  0.79203716  0.26568237  0.10218407     0.19900
C542        C  0.80941437  0.24930463  0.13194817     0.24900
C543        C  0.80022299  0.20181381  0.14210430    -0.23100
C544        C  0.77398359  0.17102767  0.12134701     0.19800
F545        F  0.76468196  0.12486712  0.12982580    -0.13100
F546        F  0.73134434  0.15734237  0.07213473    -0.15400
F547        F  0.83394856  0.28057792  0.15114185    -0.15400
F548        F  0.80101994  0.31168127  0.09315951    -0.13100
C549        C  0.89976358  0.49992603  0.63351588     0.24900
C550        C  0.90667023  0.45179304  0.64299958    -0.23200
C551        C  0.92954936  0.41994192  0.62127598     0.19900
C552        C  0.94624917  0.43621343  0.59123259     0.24900
C553        C  0.94061470  0.48456487  0.58238881    -0.23100
C554        C  0.91352526  0.01418197  0.60151951     0.19800
F555        F  0.90227602  0.05928505  0.59165969    -0.13100
F556        F  0.87149519  0.02921873  0.65034805    -0.15400
F557        F  0.96924974  0.40505747  0.57113416    -0.15400
F558        F  0.93563133  0.37294822  0.62897930    -0.13100
C559        C  0.64311199  0.29524200  0.91233309     0.24900
C560        C  0.65291226  0.34271422  0.90233515    -0.23200
C561        C  0.67791491  0.37359651  0.92364884     0.19900
C562        C  0.69431386  0.35679932  0.95359117     0.24900
C563        C  0.68666918  0.30881737  0.96252356    -0.23100
C564        C  0.66006833  0.27851063  0.94207001     0.19800
F565        F  0.65092285  0.23242041  0.95082081    -0.13100
F566        F  0.61848705  0.26424497  0.89298825    -0.15400
F567        F  0.71921277  0.38688616  0.97343137    -0.15400
F568        F  0.68648616  0.42007999  0.91563499    -0.13100
C569        C  0.52391779  0.12102474  0.62207704     0.24900
C570        C  0.55141404  0.09078745  0.64236425    -0.23200
C571        C  0.56333427  0.04435445  0.63105261     0.19900
C572        C  0.54683637  0.02817752  0.60093781     0.24900
C573        C  0.51815050  0.05779571  0.58144556    -0.23100
C574        C  0.00821660  0.10460401  0.59161008     0.19800
F575        F  0.98163887  0.13419998  0.57257187    -0.13100
F576        F  0.01345199  0.16671855  0.63090373    -0.15400
F577        F  0.55866479  0.98326522  0.59079619    -0.15400
F578        F  0.58985806  0.01378782  0.64939708    -0.13100
C579        C  0.80638413  0.25161222  0.91096526     0.24900
C580        C  0.79906370  0.20361206  0.90108890    -0.23200
C581        C  0.77576575  0.17175686  0.92249434     0.19900
C582        C  0.75892495  0.18794737  0.95254787     0.24900
C583        C  0.76465263  0.23621780  0.96163517    -0.23100
C584        C  0.78930718  0.26765918  0.94092531     0.19800
F585        F  0.79668685  0.31412305  0.94970156    -0.13100
F586        F  0.82881918  0.28362629  0.89132103    -0.15400
F587        F  0.73582281  0.15678415  0.97247110    -0.15400
F588        F  0.76952781  0.12480827  0.91452956    -0.13100
C589        C  0.81709098  0.68592475  0.86904522     0.81600
N590        N  0.85293402  0.70923406  0.85306037    -0.76700
C591        C  0.86533409  0.69607093  0.82250750     0.84000
N592        N  0.84163397  0.65941295  0.80774444    -0.76700
C593        C  0.80595626  0.63568595  0.82350877     0.84100
N594        N  0.79372647  0.64905760  0.85408619    -0.78400
C595        C  0.56682640  0.60693657  0.67557082     0.81600
N596        N  0.60315963  0.58418227  0.69146234    -0.76700
C597        C  0.61576114  0.59756978  0.72195734     0.84000
N598        N  0.59176341  0.63397138  0.73676950    -0.76700
C599        C  0.55567502  0.65728013  0.72111252     0.84100
N600        N  0.54323716  0.64363906  0.69058287    -0.78400
C601        C  0.64152164  0.85713762  0.86856798     0.81600
N602        N  0.66553171  0.89343176  0.85353411    -0.76700
C603        C  0.65329060  0.90678211  0.82296697     0.84000
N604        N  0.61698353  0.88361612  0.80733214    -0.76700
C605        C  0.59272611  0.84755599  0.82218103     0.84100
N606        N  0.60511966  0.83447022  0.85266963    -0.78400
C607        C  0.89288911  0.93543636  0.67537776     0.81600
N608        N  0.91607982  0.89867459  0.69044680    -0.76700
C609        C  0.90340453  0.88537182  0.72091890     0.84000
N610        N  0.86746159  0.90907130  0.73650501    -0.76700
C611        C  0.84376657  0.94547033  0.72163795     0.84100
N612        N  0.85657547  0.95851489  0.69117276    -0.78400
O613        O  0.53017052  0.78893820  0.81861673    -0.56500
C614        C  0.90380435  0.72158144  0.80536316     0.76200
O615        O  0.96017254  0.82075858  0.72310326    -0.57600
C616        C  0.55397677  0.82213992  0.80516931     0.76100
C617        C  0.52977320  0.69630929  0.73755767     0.78500
Cd618      Cd  0.97914664  0.77114798  0.77110703     1.37500
O619        O  0.92848391  0.75415576  0.81894162    -0.56500
O620        O  0.53873306  0.70707805  0.76672694    -0.55300
C621        C  0.92892668  0.84631788  0.73738055     0.78500
O622        O  0.49741834  0.72063786  0.72351549    -0.57600
O623        O  0.91392095  0.71198267  0.77618977    -0.56100
O624        O  0.54292797  0.83216705  0.77625153    -0.56100
O625        O  0.92073696  0.83677086  0.76679582    -0.55300
O626        O  0.77921337  0.00216511  0.72472238    -0.56500
C627        C  0.65437841  0.57213423  0.73912679     0.76200
O628        O  0.71225821  0.96950211  0.82040072    -0.57600
C629        C  0.80504939  0.97100098  0.73868239     0.76100
C630        C  0.78012481  0.59660054  0.80714241     0.78500
Cd631      Cd  0.72907589  0.52138527  0.77357572     1.37500
O632        O  0.67964884  0.54019754  0.72537947    -0.56500
O633        O  0.78955157  0.58528662  0.77814869    -0.55300
C634        C  0.67934645  0.94557077  0.80652660     0.78500
O635        O  0.74726133  0.57282960  0.82107403    -0.57600
O636        O  0.66382376  0.58089574  0.76853489    -0.56100
O637        O  0.79596186  0.96292007  0.76818693    -0.56100
O638        O  0.66980898  0.95665360  0.77754481    -0.55300
C639        C  0.70959363  0.78904921  0.99253940     0.03600
C640        C  0.74575126  0.75321888  0.99257826     0.03600
C641        C  0.76282993  0.73529695  0.02210131    -0.16900
C642        C  0.74510816  0.75302061  0.05155548     0.03600
C643        C  0.70903902  0.78887079  0.05150568     0.03600
C644        C  0.69181708  0.80669226  0.02200187    -0.16900
H645        H  0.66382075  0.83388299  0.02196639     0.05600
H646        H  0.79093260  0.70821533  0.02216815     0.05600
C647        C  0.96142654  0.50267990  0.55161899     0.03600
C648        C  0.99790735  0.53830861  0.55140625     0.03600
C649        C  0.51564988  0.55536471  0.52166482    -0.16900
C650        C  0.99755835  0.53763606  0.49221715     0.03600
C651        C  0.96084395  0.50227347  0.49245651     0.03600
C652        C  0.94387982  0.98481269  0.52154241    -0.16900
H653        H  0.91566716  0.95783567  0.52175548     0.05600
H654        H  0.54413547  0.58205558  0.52158710     0.05600
C655        C  0.81746112  0.68424823  0.17436468     0.81600
N656        N  0.79492173  0.64694360  0.18922171    -0.76700
C657        C  0.80898796  0.63239801  0.21912293     0.84000
N658        N  0.84560831  0.65550050  0.23440556    -0.76700
C659        C  0.86846344  0.69266481  0.21980186     0.84100
N660        N  0.85427320  0.70696765  0.18987529    -0.78400
C661        C  0.56732133  0.60672760  0.36832807     0.81600
N662        N  0.54427457  0.64394645  0.35364556    -0.76700
C663        C  0.55780199  0.65852629  0.32358085     0.84000
N664        N  0.59453810  0.63578974  0.30816766    -0.76700
C665        C  0.61799281  0.59891955  0.32268251     0.84100
N666        N  0.60415780  0.58437048  0.35263446    -0.78400
C667        C  0.63926066  0.85935771  0.17468068     0.81600
N668        N  0.66227255  0.89649894  0.18952938    -0.76700
C669        C  0.64919677  0.91062740  0.21979253     0.84000
N670        N  0.61304685  0.88730924  0.23540565    -0.76700
C671        C  0.58968252  0.85034343  0.22072250     0.84100
N672        N  0.60293977  0.83651547  0.19047435    -0.78400
C673        C  0.88879258  0.93402321  0.36851391     0.81600
N674        N  0.85274237  0.95718237  0.35265029    -0.76700
C675        C  0.83940885  0.94326698  0.32241182     0.84000
N676        N  0.86252692  0.90611665  0.30779464    -0.76700
C677        C  0.89854902  0.88264582  0.32340663     0.84100
N678        N  0.91162163  0.89670893  0.35371179    -0.78400
O679        O  0.52904149  0.78976890  0.22473865    -0.56500
C680        C  0.90645440  0.71880435  0.23710476     0.76200
O681        O  0.49817730  0.72055305  0.32059399    -0.57600
C682        C  0.55187041  0.82393260  0.23798271     0.76100
C683        C  0.92492304  0.84413200  0.30678453     0.78500
Cd684      Cd  0.97868986  0.77142965  0.27249205     1.37900
O685        O  0.92958150  0.75282021  0.22407324    -0.56500
O686        O  0.91501237  0.83230953  0.27794139    -0.55300
C687        C  0.53165336  0.69713838  0.30698774     0.78500
O688        O  0.95919402  0.82178447  0.32023579    -0.57600
O689        O  0.91709267  0.70884970  0.26610443    -0.56100
O690        O  0.54095489  0.83374008  0.26699775    -0.56100
O691        O  0.54121652  0.70814264  0.27799454    -0.55300
O692        O  0.67961376  0.53936365  0.31831847    -0.56500
C693        C  0.80159476  0.96951640  0.30509170     0.76200
O694        O  0.70962431  0.97171009  0.22265530    -0.57600
C695        C  0.65669239  0.57364135  0.30545940     0.76100
C696        C  0.78295378  0.59392214  0.23577986     0.78500
Cd697      Cd  0.72988326  0.52169363  0.27045148     1.37500
O698        O  0.77944986  0.00441079  0.31797713    -0.56500
O699        O  0.79347152  0.58218126  0.26448348    -0.55300
C700        C  0.67563394  0.94915370  0.23629134     0.78500
O701        O  0.74836480  0.57160521  0.22255504    -0.57600
O702        O  0.78993207  0.95868658  0.27636249    -0.56100
O703        O  0.66828527  0.58463674  0.27679174    -0.56100
O704        O  0.66596479  0.96086346  0.26517350    -0.55300
C705        C  0.51451414  0.60461291  0.45330734     0.24900
C706        C  0.51858455  0.55577989  0.46131274    -0.23200
C707        C  0.04092442  0.52471542  0.43952809     0.19900
C708        C  0.55623333  0.54064815  0.40899739     0.24900
C709        C  0.55139568  0.58946784  0.40061109    -0.23100
C710        C  0.53063591  0.62132427  0.42323835     0.19800
F711        F  0.52609292  0.66876812  0.41638531    -0.13100
F712        F  0.49330068  0.63584807  0.47422430    -0.15400
F713        F  0.07611036  0.50915207  0.38825520    -0.15400
F714        F  0.04788042  0.47790039  0.44737673    -0.13100
C715        C  0.94270254  0.93538409  0.45310669     0.24900
C716        C  0.93919427  0.98425176  0.46131564    -0.23200
C717        C  0.91602281  0.51550937  0.44055199     0.19900
C718        C  0.89999332  0.99964637  0.40966273     0.24900
C719        C  0.90463950  0.95088482  0.40092453    -0.23100
C720        C  0.92556442  0.91879360  0.42320338     0.19800
F721        F  0.92928760  0.87126898  0.41616161    -0.13100
F722        F  0.96419333  0.90398620  0.47365923    -0.15400
F723        F  0.87992049  0.53161817  0.38975373    -0.15400
F724        F  0.90957247  0.56233347  0.44875335    -0.13100
C725        C  0.66310409  0.77730648  0.10293800     0.24900
C726        C  0.68862511  0.80775190  0.08206725    -0.23200
C727        C  0.69638547  0.85577016  0.09101458     0.19900
C728        C  0.68015348  0.87284687  0.12098747     0.24900
C729        C  0.65525792  0.84214429  0.14237364    -0.23100
C730        C  0.64676211  0.79416909  0.13285143     0.19800
F731        F  0.62412075  0.76284185  0.15288875    -0.13100
F732        F  0.65432489  0.73097829  0.09441873    -0.15400
F733        F  0.68886559  0.91940364  0.12894831    -0.15400
F734        F  0.72103426  0.88570036  0.07105894    -0.13100
C735        C  0.75735414  0.68712299  0.09163509     0.24900
C736        C  0.76573566  0.73470301  0.08215137    -0.23200
C737        C  0.79251606  0.76523924  0.10238439     0.19900
C738        C  0.80989687  0.74878369  0.13211452     0.24900
C739        C  0.80066595  0.70126859  0.14221695    -0.23100
C740        C  0.77427100  0.67058007  0.12149227     0.19800
F741        F  0.76485859  0.62443057  0.12994403    -0.13100
F742        F  0.73147451  0.65709057  0.07233099    -0.15400
F743        F  0.83452271  0.77998728  0.15130742    -0.15400
F744        F  0.80161879  0.81121456  0.09335435    -0.13100
C745        C  0.89710776  0.99821059  0.63163295     0.24900
C746        C  0.90830587  0.95153071  0.64260658    -0.23200
C747        C  0.93543060  0.92103469  0.62217337     0.19900
C748        C  0.95170154  0.93722676  0.59200325     0.24900
C749        C  0.94159229  0.98416173  0.58177141    -0.23100
C750        C  0.91630313  0.51596616  0.60344990     0.19800
F751        F  0.90882361  0.56242812  0.59493133    -0.13100
F752        F  0.87847255  0.53211431  0.65372838    -0.15400
F753        F  0.97853747  0.90750365  0.57310931    -0.15400
F754        F  0.94628644  0.87546351  0.63124359    -0.13100
C755        C  0.64595924  0.79360628  0.91163618     0.24900
C756        C  0.65613553  0.84087105  0.90136507    -0.23200
C757        C  0.68144952  0.87178342  0.92250559     0.19900
C758        C  0.69745799  0.85532150  0.95263337     0.24900
C759        C  0.68914259  0.80762311  0.96195353    -0.23100
C760        C  0.66258571  0.77717935  0.94155252     0.19800
F761        F  0.65313501  0.73125314  0.95054495    -0.13100
F762        F  0.62117364  0.76255065  0.89242706    -0.15400
F763        F  0.72261947  0.88545047  0.97229207    -0.15400
F764        F  0.69062779  0.91802707  0.91417735    -0.13100
C765        C  0.52736764  0.62159172  0.62142833     0.24900
C766        C  0.55182008  0.59045829  0.64276698    -0.23200
C767        C  0.56090623  0.54284472  0.63264363     0.19900
C768        C  0.54459672  0.52647331  0.60253392     0.24900
C769        C  0.51880785  0.55709438  0.58191807    -0.23100
C770        C  0.01311581  0.60531505  0.59089102     0.19800
F771        F  0.99014481  0.63623804  0.57073002    -0.13100
F772        F  0.02264893  0.66868756  0.62897354    -0.15400
F773        F  0.55369310  0.48041353  0.59353400    -0.15400
F774        F  0.58426362  0.51140299  0.65221888    -0.13100
C775        C  0.80962306  0.75004274  0.91168361     0.24900
C776        C  0.80202128  0.70209668  0.90178650    -0.23200
C777        C  0.77844189  0.67036710  0.92313719     0.19900
C778        C  0.76129220  0.68673478  0.95306002     0.24900
C779        C  0.76703527  0.73503986  0.96205150    -0.23100
C780        C  0.79225471  0.76625428  0.94151144     0.19800
F781        F  0.79981179  0.81268404  0.95029812    -0.13100
F782        F  0.83251209  0.78189083  0.89215498    -0.15400
F783        F  0.73782165  0.65574474  0.97291418    -0.15400
F784        F  0.77211348  0.62341575  0.91520637    -0.13100
loop_ 
_geom_bond_atom_site_label_1 
_geom_bond_atom_site_label_2 
_geom_bond_distance 
_geom_bond_site_symmetry_2 
_ccdc_geom_bond_type 
C1            N2   1.360       .  A
C1            N6   1.360       .  A
C1          C188   1.484       .  S
N2            C3   1.357       .  A
C3            N4   1.356       .  A
C3           C26   1.466       .  S
N4            C5   1.357       .  A
C5            N6   1.358       .  A
C5           C42   1.466       .  S
C7            N8   1.360       .  A
C7           N12   1.362       .  A
C7          C178   1.490       .  S
N8            C9   1.357       .  A
C9           N10   1.357       .  A
C9           C39   1.469       .  S
N10          C11   1.358       .  A
C11          N12   1.359       .  A
C11          C29   1.469       .  S
C13          N14   1.361       .  A
C13          N18   1.358       .  A
C13         C168   1.484       .  S
N14          C15   1.359       .  A
C15          N16   1.358       .  A
C15          C46   1.467       .  S
N16          C17   1.357       .  A
C17          N18   1.355       .  A
C17          C28   1.465       .  S
C19          N20   1.361       .  A
C19          N24   1.360       .  A
C19         C158   1.486       .  S
N20          C21   1.358       .  A
C21          N22   1.357       .  A
C21          C33   1.465       .  S
N22          C23   1.356       .  A
C23          N24   1.357       .  A
C23          C41   1.466       .  S
O25          C28   1.266       .  A
O25        Cd422   2.463   1_455  S
C26          O35   1.264       .  A
C26          O31   1.265       .  A
O27          C33   1.266       .  A
O27         Cd30   2.475       .  S
C28          O36   1.264       .  A
C29          O34   1.266   1_455  A
C29          O32   1.264       .  A
Cd30         O37   2.443       .  S
Cd30         O35   2.456       .  S
Cd30         O31   2.472       .  S
Cd30        O417   2.462       .  S
Cd30        O428   2.459       .  S
Cd30        O426   2.477       .  S
Cd30        O424   2.459       .  S
O32        Cd422   2.460   1_455  S
C33          O37   1.264       .  A
O34        Cd422   2.479       .  S
O36        Cd422   2.460   1_455  S
O38          C41   1.265       .  A
O38        Cd239   2.469       .  S
C39          O48   1.264       .  A
C39          O44   1.266       .  A
O40          C46   1.266       .  A
O40        Cd239   2.482       .  S
C41          O49   1.265       .  A
C42          O47   1.266       .  A
C42          O45   1.264       .  A
Cd43         O48   2.464       .  S
Cd43         O44   2.476       .  S
Cd43         O47   2.477       .  S
Cd43         O45   2.450       .  S
Cd43        O234   2.475       .  S
Cd43        O236   2.483   1_545  S
Cd43        O246   2.452   1_545  S
Cd43        O245   2.458   1_545  S
C46          O50   1.264       .  A
O49        Cd239   2.460       .  S
O50        Cd239   2.452       .  S
C51         C171   1.478       .  S
C51          C52   1.415       .  A
C51          C56   1.399   1_556  A
C52         C191   1.480       .  S
C52          C53   1.402   1_556  A
C53          C54   1.400       .  A
C53          H58   1.085       .  S
C54         C148   1.479       .  S
C54          C55   1.413       .  A
C55         C138   1.476       .  S
C55          C56   1.399       .  A
C56          H57   1.085       .  S
C59         C357   1.482   1_545  S
C59          C60   1.414       .  A
C59         C260   1.402   1_545  A
C60         C573   1.481       .  S
C60         C453   1.402       .  A
C61         C452   1.402   1_455  A
C61         C454   1.404   1_455  A
C61          H66   1.085       .  S
C62         C510   1.485       .  S
C62          C63   1.417       .  A
C62         C453   1.403       .  A
C63         C324   1.484   1_545  S
C63         C260   1.403   1_545  A
C64         C255   1.402       .  A
C64         C259   1.403       .  A
C64          H65   1.085       .  S
C67          N68   1.360       .  A
C67          N72   1.360       .  A
C67         C151   1.486       .  S
N68          C69   1.358       .  A
C69          N70   1.357       .  A
C69         C108   1.466       .  S
N70          C71   1.356       .  A
C71          N72   1.357       .  A
C71          C92   1.466       .  S
C73          N74   1.361       .  A
C73          N78   1.360       .  A
C73         C121   1.485       .  S
N74          C75   1.359       .  A
C75          N76   1.358       .  A
C75          C99   1.469       .  S
N76          C77   1.357       .  A
C77          N78   1.357       .  A
C77         C107   1.468       .  S
C79          N80   1.359       .  A
C79          N84   1.359       .  A
C79         C141   1.482       .  S
N80          C81   1.357       .  A
C81          N82   1.358       .  A
C81         C112   1.464       .  S
N82          C83   1.357       .  A
C83          N84   1.356       .  A
C83          C94   1.466       .  S
C85          N86   1.359       .  A
C85          N90   1.360       .  A
C85         C131   1.482       .  S
N86          C87   1.357       .  A
C87          N88   1.356       .  A
C87         C105   1.465       .  S
N88          C89   1.357       .  A
C89          N90   1.358       .  A
C89          C95   1.466       .  S
O91          C94   1.265       .  A
O91        Cd488   2.466   1_455  S
C92         O101   1.264       .  A
C92          O97   1.265       .  A
O93          C99   1.265   1_655  A
O93        Cd488   2.482       .  S
C94         O102   1.264       .  A
C95         O100   1.265       .  A
C95          O98   1.264       .  A
Cd96        O101   2.455       .  S
Cd96         O97   2.473       .  S
Cd96        O100   2.476       .  S
Cd96         O98   2.456       .  S
Cd96        O483   2.465       .  S
Cd96        O485   2.481       .  S
Cd96        O495   2.458       .  S
Cd96        O494   2.464       .  S
C99         O103   1.264       .  A
O102       Cd488   2.464   1_455  S
O103       Cd488   2.460   1_455  S
O104        C107   1.265       .  A
O104       Cd109   2.470       .  S
C105        O114   1.264       .  A
C105        O110   1.265       .  A
O106        C112   1.266       .  A
O106       Cd305   2.470       .  S
C107        O115   1.264       .  A
C108        O113   1.266       .  A
C108        O111   1.264       .  A
Cd109       O115   2.464       .  S
Cd109       O113   2.475       .  S
Cd109       O111   2.455       .  S
Cd109       O302   2.471   1_545  S
Cd109       O312   2.451   1_545  S
Cd109       O310   2.461   1_545  S
Cd109       O306   2.466       .  S
O110       Cd305   2.465       .  S
C112        O116   1.263       .  A
O114       Cd305   2.457       .  S
O116       Cd305   2.448       .  S
C117        C118   1.404       .  A
C117        C122   1.400       .  A
C117        F124   1.358   1_455  S
C118        C454   1.486   1_455  S
C118        C511   1.405       .  A
C119        C510   1.404       .  A
C119        C512   1.398       .  A
C119        F126   1.358   1_545  S
C120        C121   1.410       .  A
C120        C511   1.398       .  A
C120        F517   1.358       .  S
C121        C122   1.410       .  A
C122        F123   1.358       .  S
F125        C512   1.358       .  S
C127        C128   1.404       .  A
C127        C132   1.399       .  A
C127        F134   1.358       .  S
C128        C259   1.484       .  S
C128        C325   1.405       .  A
C129        C324   1.404   1_545  A
C129        C326   1.396   1_545  A
C129        F136   1.358       .  S
C130        C131   1.410       .  A
C130        C325   1.397       .  A
C130        F331   1.358       .  S
C131        C132   1.409       .  A
C132        F133   1.358       .  S
F135        C326   1.358   1_545  S
C137        C138   1.402       .  A
C137        C142   1.395       .  A
C137        F144   1.358       .  S
C138        C139   1.402       .  A
C139        C140   1.398       .  A
C139        F146   1.358       .  S
C140        C141   1.411       .  A
C140        F145   1.358       .  S
C141        C142   1.411       .  A
C142        F143   1.358       .  S
C147        C148   1.402       .  A
C147        C152   1.398       .  A
C147        F154   1.358       .  S
C148        C149   1.403       .  A
C149        C150   1.397       .  A
C149        F156   1.358       .  S
C150        C151   1.412       .  A
C150        F155   1.358       .  S
C151        C152   1.412       .  A
C152        F153   1.358       .  S
C157        C158   1.411       .  A
C157        C358   1.398       .  A
C157        F360   1.358       .  S
C158        C159   1.411       .  A
C159        C160   1.400       .  A
C159        F166   1.358       .  S
C160        C161   1.404       .  A
C160        F165   1.358       .  S
C161        C255   1.483       .  S
C161        C358   1.403       .  A
C162        C353   1.397   1_545  A
C162        C357   1.402   1_545  A
C162        F163   1.358       .  S
F164        C353   1.358   1_545  S
C167        C168   1.412       .  A
C167        C172   1.396       .  A
C167        F174   1.358       .  S
C168        C169   1.410       .  A
C169        C170   1.398       .  A
C169        F176   1.358       .  S
C170        C171   1.403       .  A
C170        F175   1.358       .  S
C171        C172   1.401       .  A
C172        F173   1.358       .  S
C177        C178   1.412       .  A
C177        C574   1.401       .  A
C177        F576   1.358       .  S
C178        C179   1.413       .  A
C179        C180   1.397       .  A
C179        F186   1.358       .  S
C180        C181   1.402       .  A
C180        F185   1.358   1_545  S
C181        C452   1.481   1_455  S
C181        C574   1.403       .  A
C182        C569   1.401       .  A
C182        C573   1.403       .  A
C182        F183   1.358       .  S
F184        C569   1.358       .  S
C187        C188   1.410       .  A
C187        C192   1.396       .  A
C187        F194   1.358       .  S
C188        C189   1.410       .  A
C189        C190   1.399       .  A
C189        F196   1.358       .  S
C190        C191   1.403       .  A
C190        F195   1.358       .  S
C191        C192   1.403       .  A
C192        F193   1.358       .  S
C197        N198   1.359       .  A
C197        N202   1.360       .  A
C197        C384   1.483       .  S
N198        C199   1.356       .  A
C199        N200   1.357       .  A
C199        C222   1.465       .  S
N200        C201   1.357       .  A
C201        N202   1.358       .  A
C201        C238   1.466       .  S
C203        N204   1.360       .  A
C203        N208   1.361       .  A
C203        C374   1.486       .  S
N204        C205   1.357       .  A
C205        N206   1.357       .  A
C205        C235   1.468       .  S
N206        C207   1.358       .  A
C207        N208   1.359       .  A
C207        C225   1.468       .  S
C209        N210   1.362       .  A
C209        N214   1.358       .  A
C209        C364   1.485       .  S
N210        C211   1.359       .  A
C211        N212   1.357       .  A
C211        C242   1.468       .  S
N212        C213   1.356       .  A
C213        N214   1.355       .  A
C213        C224   1.464       .  S
C215        N216   1.361       .  A
C215        N220   1.361       .  A
C215        C354   1.489       .  S
N216        C217   1.358       .  A
C217        N218   1.357       .  A
C217        C229   1.466       .  S
N218        C219   1.356       .  A
C219        N220   1.357       .  A
C219        C237   1.467       .  S
O221        C224   1.265       .  A
O221       Cd618   2.463   1_455  S
C222        O231   1.264       .  A
C222        O227   1.265       .  A
O223        C229   1.266       .  A
O223       Cd226   2.472       .  S
C224        O232   1.264       .  A
C225        O230   1.266   1_455  A
C225        O228   1.264       .  A
Cd226       O613   2.463       .  S
Cd226       O233   2.449       .  S
Cd226       O624   2.458       .  S
Cd226       O231   2.456       .  S
Cd226       O227   2.471       .  S
Cd226       O622   2.478       .  S
Cd226       O620   2.453       .  S
O228       Cd618   2.455   1_455  S
C229        O233   1.264       .  A
O230       Cd618   2.478       .  S
O232       Cd618   2.457   1_455  S
O234        C237   1.266   1_545  A
C235        O244   1.264       .  A
C235        O240   1.265       .  A
O236        C242   1.266       .  A
C237        O245   1.264       .  A
C238        O243   1.266       .  A
C238        O241   1.264       .  A
Cd239       O244   2.464       .  S
Cd239       O240   2.473       .  S
Cd239       O243   2.476       .  S
Cd239       O241   2.452       .  S
C242        O246   1.264       .  A
C247        C367   1.479       .  S
C247        C248   1.415       .  A
C247        C252   1.400   1_556  A
C248        C387   1.479       .  S
C248        C249   1.400   1_556  A
C249        C250   1.399       .  A
C249        H254   1.085       .  S
C250        C344   1.478       .  S
C250        C251   1.414       .  A
C251        C334   1.478       .  S
C251        C252   1.400       .  A
C252        H253   1.085       .  S
C255        C256   1.415       .  A
C256        C769   1.482       .  S
C256        C649   1.403       .  A
C257        C648   1.403   1_455  A
C257        C650   1.403   1_455  A
C257        H262   1.085       .  S
C258        C706   1.487       .  S
C258        C649   1.404       .  A
C258        C259   1.417       .  A
C260        H261   1.085       .  S
C263        N264   1.360       .  A
C263        N268   1.360       .  A
C263        C347   1.485       .  S
N264        C265   1.357       .  A
C265        N266   1.356       .  A
C265        C304   1.465       .  S
N266        C267   1.356       .  A
C267        N268   1.357       .  A
C267        C288   1.465       .  S
C269        N270   1.362       .  A
C269        N274   1.360       .  A
C269        C317   1.486       .  S
N270        C271   1.360       .  A
C271        N272   1.357       .  A
C271        C295   1.468       .  S
N272        C273   1.356       .  A
C273        N274   1.357       .  A
C273        C303   1.467       .  S
C275        N276   1.359       .  A
C275        N280   1.359       .  A
C275        C337   1.483       .  S
N276        C277   1.357       .  A
C277        N278   1.358       .  A
C277        C308   1.465       .  S
N278        C279   1.357       .  A
C279        N280   1.356       .  A
C279        C290   1.467       .  S
C281        N282   1.359       .  A
C281        N286   1.360       .  A
C281        C327   1.483       .  S
N282        C283   1.356       .  A
C283        N284   1.357       .  A
C283        C301   1.466       .  S
N284        C285   1.358       .  A
C285        N286   1.358       .  A
C285        C291   1.466       .  S
O287        C290   1.265       .  A
O287       Cd684   2.469   1_455  S
C288        O297   1.264       .  A
C288        O293   1.265       .  A
O289        C295   1.265   1_655  A
O289       Cd684   2.483       .  S
C290        O298   1.264       .  A
C291        O296   1.265       .  A
C291        O294   1.264       .  A
Cd292       O679   2.469       .  S
Cd292       O681   2.483       .  S
Cd292       O691   2.456       .  S
Cd292       O690   2.466       .  S
Cd292       O297   2.454       .  S
Cd292       O293   2.471       .  S
Cd292       O296   2.473       .  S
Cd292       O294   2.457       .  S
C295        O299   1.264       .  A
O298       Cd684   2.467   1_455  S
O299       Cd684   2.455   1_455  S
O300        C303   1.265       .  A
O300       Cd305   2.467       .  S
C301        O310   1.264       .  A
C301        O306   1.265   1_565  A
O302        C308   1.266       .  A
C303        O311   1.265       .  A
C304        O309   1.266       .  A
C304        O307   1.264       .  A
Cd305       O311   2.463       .  S
Cd305       O309   2.473       .  S
Cd305       O307   2.452       .  S
C308        O312   1.263       .  A
C313        C314   1.404       .  A
C313        C318   1.400       .  A
C313        F320   1.358   1_455  S
C314        C650   1.486   1_455  S
C314        C707   1.405       .  A
C315        C706   1.405       .  A
C315        C708   1.399       .  A
C315        F322   1.358       .  S
C316        C707   1.399       .  A
C316        C317   1.411       .  A
C316        F713   1.358       .  S
C317        C318   1.410       .  A
C318        F319   1.357       .  S
F321        C708   1.358       .  S
C323        C324   1.404       .  A
C323        C328   1.399       .  A
C323        F330   1.358       .  S
C325        F332   1.358       .  S
C326        C327   1.410       .  A
C327        C328   1.410       .  A
C328        F329   1.358       .  S
C333        C334   1.402       .  A
C333        C338   1.395       .  A
C333        F340   1.358       .  S
C334        C335   1.402       .  A
C335        C336   1.398       .  A
C335        F342   1.358       .  S
C336        C337   1.411       .  A
C336        F341   1.358       .  S
C337        C338   1.411       .  A
C338        F339   1.358       .  S
C343        C344   1.402       .  A
C343        C348   1.398       .  A
C343        F350   1.358       .  S
C344        C345   1.402       .  A
C345        C346   1.397       .  A
C345        F352   1.358       .  S
C346        C347   1.412       .  A
C346        F351   1.358       .  S
C347        C348   1.411       .  A
C348        F349   1.358       .  S
C353        C354   1.412       .  A
C354        C355   1.413       .  A
C355        C356   1.400       .  A
C355        F362   1.358       .  S
C356        C357   1.403       .  A
C356        F361   1.358       .  S
C358        F359   1.358       .  S
C363        C364   1.412       .  A
C363        C368   1.396       .  A
C363        F370   1.358       .  S
C364        C365   1.410       .  A
C365        C366   1.399       .  A
C365        F372   1.358       .  S
C366        C367   1.403       .  A
C366        F371   1.358       .  S
C367        C368   1.402       .  A
C368        F369   1.358       .  S
C373        C374   1.411       .  A
C373        C770   1.401       .  A
C373        F772   1.358       .  S
C374        C375   1.411       .  A
C375        C376   1.397       .  A
C375        F382   1.358       .  S
C376        C377   1.403       .  A
C376        F381   1.358       .  S
C377        C648   1.484   1_455  S
C377        C770   1.404       .  A
C378        C765   1.401       .  A
C378        C769   1.404       .  A
C378        F379   1.358       .  S
F380        C765   1.358       .  S
C383        C384   1.411       .  A
C383        C388   1.395       .  A
C383        F390   1.358       .  S
C384        C385   1.410       .  A
C385        C386   1.398       .  A
C385        F392   1.358       .  S
C386        C387   1.403       .  A
C386        F391   1.358       .  S
C387        C388   1.402       .  A
C388        F389   1.358       .  S
C393        N394   1.360       .  A
C393        N398   1.361       .  A
C393        C580   1.484       .  S
N394        C395   1.357       .  A
C395        N396   1.356       .  A
C395        C418   1.465       .  S
N396        C397   1.357       .  A
C397        N398   1.358       .  A
C397        C434   1.466       .  S
C399        N400   1.361       .  A
C399        N404   1.361       .  A
C399        C570   1.490       .  S
N400        C401   1.357       .  A
C401        N402   1.357       .  A
C401        C431   1.469       .  S
N402        C403   1.358       .  A
C403        N404   1.359       .  A
C403        C421   1.468       .  S
C405        N406   1.361       .  A
C405        N410   1.358       .  A
C405        C560   1.484       .  S
N406        C407   1.359       .  A
C407        N408   1.358       .  A
C407        C438   1.467       .  S
N408        C409   1.357       .  A
C409        N410   1.355       .  A
C409        C420   1.464       .  S
C411        N412   1.361       .  A
C411        N416   1.360       .  A
C411        C550   1.485       .  S
N412        C413   1.358       .  A
C413        N414   1.357       .  A
C413        C425   1.465       .  S
N414        C415   1.356       .  A
C415        N416   1.357       .  A
C415        C433   1.466       .  S
O417        C420   1.266       .  A
C418        O427   1.264       .  A
C418        O423   1.265       .  A
O419        C425   1.266       .  A
O419       Cd422   2.475       .  S
C420        O428   1.264       .  A
C421        O426   1.266       .  A
C421        O424   1.264       .  A
Cd422       O429   2.445       .  S
Cd422       O427   2.456       .  S
Cd422       O423   2.473       .  S
C425        O429   1.264       .  A
O430        C433   1.265       .  A
O430       Cd631   2.469       .  S
C431        O440   1.264       .  A
C431        O436   1.266       .  A
O432        C438   1.266       .  A
O432       Cd631   2.483       .  S
C433        O441   1.265       .  A
C434        O439   1.266       .  A
C434        O437   1.264       .  A
Cd435       O626   2.473       .  S
Cd435       O628   2.482   1_545  S
Cd435       O638   2.452   1_545  S
Cd435       O637   2.460   1_545  S
Cd435       O440   2.462       .  S
Cd435       O436   2.477       .  S
Cd435       O439   2.477       .  S
Cd435       O437   2.450       .  S
C438        O442   1.264       .  A
O441       Cd631   2.460       .  S
O442       Cd631   2.452       .  S
C443        C563   1.478       .  S
C443        C444   1.415       .  A
C443        C448   1.399   1_556  A
C444        C583   1.480       .  S
C444        C445   1.402   1_556  A
C445        C446   1.401       .  A
C445        H450   1.085       .  S
C446        C540   1.480       .  S
C446        C447   1.413       .  A
C447        C530   1.476       .  S
C447        C448   1.399       .  A
C448        H449   1.085       .  S
C451        C749   1.482   1_545  S
C451        C452   1.414       .  A
C451        C652   1.401   1_545  A
C453        H458   1.085       .  S
C454        C455   1.418       .  A
C455        C716   1.484   1_545  S
C455        C652   1.403   1_545  A
C456        C647   1.402       .  A
C456        C651   1.403       .  A
C456        H457   1.085       .  S
C459        N460   1.360       .  A
C459        N464   1.360       .  A
C459        C543   1.486       .  S
N460        C461   1.357       .  A
C461        N462   1.357       .  A
C461        C500   1.466       .  S
N462        C463   1.356       .  A
C463        N464   1.358       .  A
C463        C484   1.466       .  S
C465        N466   1.361       .  A
C465        N470   1.360       .  A
C465        C513   1.486       .  S
N466        C467   1.359       .  A
C467        N468   1.358       .  A
C467        C491   1.468       .  S
N468        C469   1.357       .  A
C469        N470   1.357       .  A
C469        C499   1.467       .  S
C471        N472   1.359       .  A
C471        N476   1.359       .  A
C471        C533   1.482       .  S
N472        C473   1.357       .  A
C473        N474   1.358       .  A
C473        C504   1.464       .  S
N474        C475   1.357       .  A
C475        N476   1.356       .  A
C475        C486   1.466       .  S
C477        N478   1.359       .  A
C477        N482   1.361       .  A
C477        C523   1.483       .  S
N478        C479   1.357       .  A
C479        N480   1.356       .  A
C479        C497   1.465       .  S
N480        C481   1.357       .  A
C481        N482   1.358       .  A
C481        C487   1.467       .  S
O483        C486   1.265       .  A
C484        O493   1.264       .  A
C484        O489   1.265       .  A
O485        C491   1.265       .  A
C486        O494   1.264       .  A
C487        O492   1.265       .  A
C487        O490   1.264       .  A
Cd488       O493   2.456       .  S
Cd488       O489   2.474       .  S
Cd488       O492   2.476       .  S
Cd488       O490   2.456       .  S
C491        O495   1.264       .  A
O496        C499   1.265       .  A
O496       Cd501   2.470       .  S
C497        O506   1.264       .  A
C497        O502   1.265       .  A
O498        C504   1.266       .  A
O498       Cd697   2.469       .  S
C499        O507   1.264       .  A
C500        O505   1.266       .  A
C500        O503   1.264       .  A
Cd501       O694   2.472   1_545  S
Cd501       O704   2.451   1_545  S
Cd501       O507   2.465       .  S
Cd501       O702   2.461   1_545  S
Cd501       O698   2.466       .  S
Cd501       O505   2.474       .  S
Cd501       O503   2.454       .  S
O502       Cd697   2.465       .  S
C504        O508   1.263       .  A
O506       Cd697   2.457       .  S
O508       Cd697   2.448       .  S
C509        C510   1.404       .  A
C509        C514   1.400       .  A
C509        F516   1.358       .  S
C511        F518   1.358   1_545  S
C512        C513   1.411       .  A
C513        C514   1.410       .  A
C514        F515   1.358       .  S
C519        C520   1.404       .  A
C519        C524   1.399       .  A
C519        F526   1.358       .  S
C520        C651   1.483       .  S
C520        C717   1.404       .  A
C521        C716   1.405   1_545  A
C521        C718   1.397   1_545  A
C521        F528   1.358       .  S
C522        C717   1.397       .  A
C522        C523   1.410       .  A
C522        F723   1.358       .  S
C523        C524   1.410       .  A
C524        F525   1.358       .  S
F527        C718   1.358   1_545  S
C529        C530   1.402       .  A
C529        C534   1.395       .  A
C529        F536   1.358       .  S
C530        C531   1.402       .  A
C531        C532   1.397       .  A
C531        F538   1.358       .  S
C532        C533   1.411       .  A
C532        F537   1.358       .  S
C533        C534   1.411       .  A
C534        F535   1.358       .  S
C539        C540   1.402       .  A
C539        C544   1.398       .  A
C539        F546   1.358       .  S
C540        C541   1.403       .  A
C541        C542   1.397       .  A
C541        F548   1.358       .  S
C542        C543   1.411       .  A
C542        F547   1.358       .  S
C543        C544   1.412       .  A
C544        F545   1.358       .  S
C549        C550   1.410       .  A
C549        C750   1.397       .  A
C549        F752   1.358       .  S
C550        C551   1.410       .  A
C551        C552   1.400       .  A
C551        F558   1.358       .  S
C552        C553   1.405       .  A
C552        F557   1.358       .  S
C553        C647   1.485       .  S
C553        C750   1.404       .  A
C554        C745   1.398   1_545  A
C554        C749   1.402   1_545  A
C554        F555   1.358       .  S
F556        C745   1.358   1_545  S
C559        C560   1.412       .  A
C559        C564   1.395       .  A
C559        F566   1.358       .  S
C560        C561   1.410       .  A
C561        C562   1.398       .  A
C561        F568   1.358       .  S
C562        C563   1.403       .  A
C562        F567   1.358       .  S
C563        C564   1.401       .  A
C564        F565   1.358       .  S
C569        C570   1.413       .  A
C570        C571   1.412       .  A
C571        C572   1.397       .  A
C571        F578   1.357       .  S
C572        C573   1.402       .  A
C572        F577   1.358   1_545  S
C574        F575   1.358   1_455  S
C579        C580   1.410       .  A
C579        C584   1.396       .  A
C579        F586   1.358       .  S
C580        C581   1.410       .  A
C581        C582   1.399       .  A
C581        F588   1.358       .  S
C582        C583   1.403       .  A
C582        F587   1.358       .  S
C583        C584   1.403       .  A
C584        F585   1.358       .  S
C589        N590   1.359       .  A
C589        N594   1.360       .  A
C589        C776   1.483       .  S
N590        C591   1.356       .  A
C591        N592   1.357       .  A
C591        C614   1.465       .  S
N592        C593   1.357       .  A
C593        N594   1.358       .  A
C593        C630   1.466       .  S
C595        N596   1.360       .  A
C595        N600   1.361       .  A
C595        C766   1.487       .  S
N596        C597   1.357       .  A
C597        N598   1.357       .  A
C597        C627   1.468       .  S
N598        C599   1.358       .  A
C599        N600   1.359       .  A
C599        C617   1.468       .  S
C601        N602   1.361       .  A
C601        N606   1.358       .  A
C601        C756   1.485       .  S
N602        C603   1.359       .  A
C603        N604   1.358       .  A
C603        C634   1.467       .  S
N604        C605   1.356       .  A
C605        N606   1.355       .  A
C605        C616   1.465       .  S
C607        N608   1.361       .  A
C607        N612   1.360       .  A
C607        C746   1.489       .  S
N608        C609   1.358       .  A
C609        N610   1.357       .  A
C609        C621   1.466       .  S
N610        C611   1.356       .  A
C611        N612   1.357       .  A
C611        C629   1.467       .  S
O613        C616   1.266       .  A
C614        O623   1.264       .  A
C614        O619   1.265       .  A
O615        C621   1.266       .  A
O615       Cd618   2.475       .  S
C616        O624   1.264       .  A
C617        O622   1.266       .  A
C617        O620   1.264       .  A
Cd618       O625   2.449       .  S
Cd618       O623   2.456       .  S
Cd618       O619   2.470       .  S
C621        O625   1.264       .  A
O626        C629   1.266   1_545  A
C627        O636   1.264       .  A
C627        O632   1.265       .  A
O628        C634   1.266       .  A
C629        O637   1.264       .  A
C630        O635   1.266       .  A
C630        O633   1.264       .  A
Cd631       O636   2.464       .  S
Cd631       O632   2.473       .  S
Cd631       O635   2.476       .  S
Cd631       O633   2.452       .  S
C634        O638   1.264       .  A
C639        C759   1.479       .  S
C639        C640   1.415       .  A
C639        C644   1.400   1_556  A
C640        C779   1.479       .  S
C640        C641   1.400   1_556  A
C641        C642   1.400       .  A
C641        H646   1.085       .  S
C642        C736   1.478       .  S
C642        C643   1.414       .  A
C643        C726   1.478       .  S
C643        C644   1.400       .  A
C644        H645   1.085       .  S
C647        C648   1.417       .  A
C649        H654   1.085       .  S
C650        C651   1.416       .  A
C652        H653   1.085       .  S
C655        N656   1.360       .  A
C655        N660   1.360       .  A
C655        C739   1.485       .  S
N656        C657   1.357       .  A
C657        N658   1.356       .  A
C657        C696   1.465       .  S
N658        C659   1.356       .  A
C659        N660   1.357       .  A
C659        C680   1.465       .  S
C661        N662   1.361       .  A
C661        N666   1.360       .  A
C661        C709   1.485       .  S
N662        C663   1.359       .  A
C663        N664   1.357       .  A
C663        C687   1.468       .  S
N664        C665   1.356       .  A
C665        N666   1.357       .  A
C665        C695   1.467       .  S
C667        N668   1.359       .  A
C667        N672   1.359       .  A
C667        C729   1.483       .  S
N668        C669   1.358       .  A
C669        N670   1.358       .  A
C669        C700   1.465       .  S
N670        C671   1.357       .  A
C671        N672   1.356       .  A
C671        C682   1.467       .  S
C673        N674   1.359       .  A
C673        N678   1.360       .  A
C673        C719   1.482       .  S
N674        C675   1.357       .  A
C675        N676   1.357       .  A
C675        C693   1.466       .  S
N676        C677   1.358       .  A
C677        N678   1.358       .  A
C677        C683   1.467       .  S
O679        C682   1.265       .  A
C680        O689   1.264       .  A
C680        O685   1.265       .  A
O681        C687   1.265       .  A
C682        O690   1.264       .  A
C683        O688   1.265       .  A
C683        O686   1.264       .  A
Cd684       O689   2.453       .  S
Cd684       O685   2.471       .  S
Cd684       O688   2.474       .  S
Cd684       O686   2.458       .  S
C687        O691   1.264       .  A
O692        C695   1.265       .  A
O692       Cd697   2.467       .  S
C693        O702   1.264       .  A
C693        O698   1.265   1_565  A
O694        C700   1.266       .  A
C695        O703   1.265       .  A
C696        O701   1.266       .  A
C696        O699   1.264       .  A
Cd697       O703   2.461       .  S
Cd697       O701   2.473       .  S
Cd697       O699   2.451       .  S
C700        O704   1.264       .  A
C705        C706   1.405       .  A
C705        C710   1.400       .  A
C705        F712   1.358       .  S
C707        F714   1.358       .  S
C708        C709   1.410       .  A
C709        C710   1.409       .  A
C710        F711   1.358       .  S
C715        C716   1.404       .  A
C715        C720   1.399       .  A
C715        F722   1.358       .  S
C717        F724   1.358       .  S
C718        C719   1.409       .  A
C719        C720   1.409       .  A
C720        F721   1.358       .  S
C725        C726   1.402       .  A
C725        C730   1.395       .  A
C725        F732   1.358       .  S
C726        C727   1.402       .  A
C727        C728   1.398       .  A
C727        F734   1.358       .  S
C728        C729   1.411       .  A
C728        F733   1.358       .  S
C729        C730   1.411       .  A
C730        F731   1.358       .  S
C735        C736   1.402       .  A
C735        C740   1.398       .  A
C735        F742   1.358       .  S
C736        C737   1.402       .  A
C737        C738   1.397       .  A
C737        F744   1.358       .  S
C738        C739   1.412       .  A
C738        F743   1.358       .  S
C739        C740   1.411       .  A
C740        F741   1.358       .  S
C745        C746   1.412       .  A
C746        C747   1.412       .  A
C747        C748   1.400       .  A
C747        F754   1.358       .  S
C748        C749   1.403       .  A
C748        F753   1.358       .  S
C750        F751   1.357       .  S
C755        C756   1.412       .  A
C755        C760   1.396       .  A
C755        F762   1.358       .  S
C756        C757   1.410       .  A
C757        C758   1.399       .  A
C757        F764   1.358       .  S
C758        C759   1.403       .  A
C758        F763   1.358       .  S
C759        C760   1.402       .  A
C760        F761   1.358       .  S
C765        C766   1.411       .  A
C766        C767   1.411       .  A
C767        C768   1.397       .  A
C767        F774   1.358       .  S
C768        C769   1.402       .  A
C768        F773   1.358       .  S
C770        F771   1.358   1_455  S
C775        C776   1.410       .  A
C775        C780   1.396       .  A
C775        F782   1.358       .  S
C776        C777   1.410       .  A
C777        C778   1.398       .  A
C777        F784   1.358       .  S
C778        C779   1.403       .  A
C778        F783   1.358       .  S
C779        C780   1.403       .  A
C780        F781   1.358       .  S
