geometry optimzed in LAMMPS
_audit_creation_date              2020-11-30 
_audit_creation_method            'lammps2cif' 
_symmetry_space_group_name_H-M    'P1' 
_symmetry_Int_Tables_number       1 
_symmetry_cell_setting            triclinic 
loop_ 
_symmetry_equiv_pos_as_xyz 
  x,y,z 
_cell_length_a                    32.68035556 
_cell_length_b                    39.53705731260537 
_cell_length_c                    26.177134777453848 
_cell_angle_alpha                 90.57121727164764 
_cell_angle_beta                  90.75525176043342 
_cell_angle_gamma                 89.99704436692706 
loop_ 
_atom_site_label 
_atom_site_type_symbol 
_atom_site_fract_x 
_atom_site_fract_y 
_atom_site_fract_z 
_atom_site_charge 
In1        In  0.79305261  0.24852914  0.25814868     1.36900
C2          C  0.73553929  0.21735060  0.20391767     0.79200
O3          O  0.83166844  0.20215139  0.24637912    -0.59200
O4          O  0.82957395  0.22361873  0.32106207    -0.50100
C5          C  0.84251494  0.29568929  0.22189721     0.71900
O6          O  0.82894866  0.27162710  0.19471344    -0.45000
C7          C  0.73635734  0.28089996  0.31124912     0.76600
O8          O  0.75701020  0.24063155  0.18552963    -0.56900
O9          O  0.75996467  0.25953913  0.33170104    -0.46900
O10         O  0.74528429  0.20844277  0.24848214    -0.53300
C11         C  0.84270138  0.20024986  0.29250911     0.86800
O12         O  0.83258344  0.29484500  0.26817311    -0.55200
O13         O  0.74320940  0.28691430  0.26509047    -0.58500
In14       In  0.20119019  0.24972359  0.24327765     1.36900
C15         C  0.25846825  0.28203671  0.19389459     0.79200
O16         O  0.15962363  0.29211082  0.22067762    -0.59200
O17         O  0.16639795  0.28025509  0.29976007    -0.50100
C18         C  0.15083533  0.20029332  0.21680418     0.71900
O19         O  0.17059109  0.21689608  0.18439557    -0.45000
C20         C  0.25738701  0.21886705  0.29815706     0.76600
O21         O  0.23578985  0.26039193  0.17169572    -0.56900
O22         O  0.23519981  0.24184981  0.31690809    -0.46900
O23         O  0.25010318  0.28849857  0.23972267    -0.53300
C24         C  0.15077348  0.29916761  0.26624292     0.86800
O25         O  0.15602213  0.20937611  0.26268825    -0.55200
O26         O  0.24892207  0.21012631  0.25288141    -0.58500
C27         C  0.08061587  0.40488561  0.41238580     0.88100
C28         C  0.08611102  0.37289068  0.37988922    -0.52100
C29         C  0.09661242  0.37912082  0.33083964     0.11000
C30         C  0.10063687  0.41678745  0.31813923     0.22000
C31         C  0.12126125  0.42429064  0.40713420    -0.52800
C32         C  0.13159207  0.43041793  0.35787547     0.11200
C33         C  0.04866318  0.42599557  0.38301091    -0.52400
C34         C  0.05935607  0.43246729  0.33352625     0.11700
H35         H  0.08410769  0.34744363  0.39500616     0.16200
H36         H  0.10955183  0.42157702  0.27802556     0.02000
H37         H  0.14052444  0.43176819  0.43945926     0.16500
H38         H  0.02081715  0.43555473  0.40012420     0.16300
C39         C  0.07983889  0.09310420  0.07158322     0.88100
C40         C  0.08251975  0.12560683  0.10371801    -0.52100
C41         C  0.09251244  0.12049313  0.15355704     0.11000
C42         C  0.09827574  0.08315905  0.16760069     0.22000
C43         C  0.12157191  0.07559024  0.08039489    -0.52800
C44         C  0.13103369  0.07051463  0.13063002     0.11200
C45         C  0.04859335  0.07077482  0.09936318    -0.52400
C46         C  0.05848455  0.06529182  0.14986550     0.11700
H47         H  0.08027518  0.15076733  0.08753065     0.16200
H48         H  0.10651842  0.07926195  0.20844844     0.02000
H49         H  0.14217840  0.06875204  0.04974105     0.16500
H50         H  0.02190867  0.05971648  0.08054400     0.16300
C51         C  0.90690117  0.07999171  0.42608884     0.88100
C52         C  0.90534511  0.11600673  0.40388036    -0.52100
C53         C  0.89615712  0.11662743  0.35291972     0.11000
C54         C  0.89017780  0.08141744  0.32827729     0.22000
C55         C  0.86528323  0.06442430  0.41119820    -0.52800
C56         C  0.85658796  0.06536865  0.36037865     0.11200
C57         C  0.93804685  0.06095998  0.39324221    -0.52400
C58         C  0.92928640  0.06131562  0.34196055     0.11700
H59         H  0.90804224  0.13918458  0.42607113     0.16200
H60         H  0.88268250  0.08201458  0.28676113     0.02000
H61         H  0.84422096  0.05399181  0.43871160     0.16500
H62         H  0.96369183  0.04703498  0.40946399     0.16300
C63         C  0.90291873  0.40360728  0.06744233     0.88100
C64         C  0.90068064  0.37064404  0.09774782    -0.52100
C65         C  0.89151680  0.37527727  0.14791301     0.11000
C66         C  0.88588869  0.41257756  0.16375734     0.22000
C67         C  0.86138760  0.42096921  0.07668114    -0.52800
C68         C  0.85267577  0.42559871  0.12695820     0.11200
C69         C  0.93453417  0.42554399  0.09668042    -0.52400
C70         C  0.92539665  0.43061139  0.14722514     0.11700
H71         H  0.90349186  0.34568407  0.08037499     0.16200
H72         H  0.87827408  0.41624583  0.20469499     0.02000
H73         H  0.84057249  0.42851480  0.04614708     0.16500
H74         H  0.96085285  0.43689736  0.07864247     0.16300
In75       In  0.99429671  0.99873107  0.24297515     1.36900
C76         C  0.95300040  0.04085644  0.30494217     0.79200
O77         O  0.04817118  0.03309133  0.22670863    -0.59200
O78         O  0.00058110  0.03033136  0.17147915    -0.50100
C79         C  0.03486560  0.45421920  0.29911128     0.71900
O80         O  0.99910201  0.46376555  0.30932102    -0.45000
C81         C  0.94954517  0.45341885  0.18146241     0.76600
O82         O  0.98770837  0.02893210  0.31573726    -0.56900
O83         O  0.98538855  0.46272544  0.17157754    -0.46900
O84         O  0.93975924  0.03251796  0.26114807    -0.53300
C85         C  0.03497209  0.04255030  0.18364589     0.86800
O86         O  0.04846098  0.46559308  0.25779825    -0.55200
O87         O  0.93571993  0.46593083  0.22225504    -0.58500
In88       In  0.78206815  0.24924644  0.75566079     1.36900
C89         C  0.72241022  0.27900903  0.70328090     0.79200
O90         O  0.73581801  0.20853476  0.76715817    -0.59200
O91         O  0.74922742  0.24163800  0.82979264    -0.50100
C92         C  0.83172965  0.20043821  0.72276906     0.71900
O93         O  0.81318242  0.22017295  0.69284008    -0.45000
C94         C  0.83255371  0.29893844  0.78542928     0.76600
O95         O  0.74675372  0.25845920  0.68244950    -0.56900
O96         O  0.81933035  0.27701497  0.81565829    -0.46900
O97         O  0.73007809  0.28578455  0.74946388    -0.53300
C98         C  0.72773038  0.21764706  0.81208303     0.86800
O99         O  0.82581997  0.20604658  0.76954094    -0.55200
O100        O  0.82115166  0.29499633  0.73959398    -0.58500
In101      In  0.18649952  0.25093784  0.74212641     1.36900
C102        C  0.24415078  0.21839734  0.68977357     0.79200
O103        O  0.23466503  0.29133967  0.75091585    -0.59200
O104        O  0.22138483  0.26150316  0.81556809    -0.50100
C105        C  0.13655457  0.29793801  0.70200727     0.71900
O106        O  0.15035650  0.27347914  0.67621606    -0.45000
C107        C  0.13810663  0.20338016  0.78232626     0.76600
O108        O  0.22192918  0.24079277  0.66962535    -0.56900
O109        O  0.15289964  0.22757755  0.80825454    -0.46900
O110        O  0.23520701  0.21122904  0.73492448    -0.53300
C111        C  0.24339800  0.28413391  0.79646134     0.86800
O112        O  0.14631342  0.29745728  0.74873099    -0.55200
O113        O  0.14610874  0.20435122  0.73536915    -0.58500
C114        C  0.07468618  0.41714349  0.55926855     0.88100
C115        C  0.04321922  0.43595547  0.59182276    -0.52100
C116        C  0.05199173  0.43617796  0.64303358     0.11000
C117        C  0.09135571  0.41637387  0.65710169     0.22000
C118        C  0.11600887  0.43310883  0.57395009    -0.52800
C119        C  0.12478419  0.43237814  0.62465969     0.11200
C120        C  0.07679737  0.38112331  0.58187783    -0.52400
C121        C  0.08593379  0.38081719  0.63307807     0.11700
H122        H  0.01754397  0.44969786  0.57534183     0.16200
H123        H  0.09887965  0.41620269  0.69862293     0.02000
H124        H  0.13707150  0.44337513  0.54626932     0.16500
H125        H  0.07398565  0.35790357  0.55977921     0.16300
C126        C  0.07811690  0.08245833  0.92271679     0.88100
C127        C  0.04592662  0.06444350  0.88926287    -0.52100
C128        C  0.05372330  0.06507267  0.83809080     0.11000
C129        C  0.09273027  0.08505310  0.82482862     0.22000
C130        C  0.11899951  0.06659444  0.90719404    -0.51600
C131        C  0.12657690  0.06818810  0.85646748     0.11200
C132        C  0.08016496  0.11894617  0.90160912    -0.52400
C133        C  0.08821491  0.12017691  0.85033948     0.11700
H134        H  0.02077771  0.05018357  0.90517126     0.16200
H135        H  0.09936839  0.08589422  0.78332487     0.02000
H136        H  0.14039133  0.05531912  0.93424373     0.16500
H137        H  0.07849684  0.14172543  0.92484310     0.16300
C138        C  0.90424377  0.09489756  0.57278698     0.88100
C139        C  0.93464220  0.07218036  0.60154049    -0.52100
C140        C  0.92406809  0.06625079  0.65108838     0.11000
C141        C  0.88432489  0.08438710  0.66740385     0.22000
C142        C  0.86219213  0.07786869  0.57884613    -0.52800
C143        C  0.85199454  0.07243536  0.62827004     0.11200
C144        C  0.90156053  0.12734624  0.60520986    -0.52400
C145        C  0.89056279  0.12197460  0.65449741     0.11700
H146        H  0.96130139  0.06093429  0.58375702     0.16200
H147        H  0.87555631  0.07999852  0.70767351     0.02000
H148        H  0.84204060  0.07129753  0.54690848     0.16500
H149        H  0.90433092  0.15254547  0.58937037     0.16300
C150        C  0.90149770  0.41889959  0.92025350     0.88100
C151        C  0.93275455  0.43723497  0.88716463    -0.52100
C152        C  0.92316658  0.43717675  0.83606909     0.11000
C153        C  0.88327007  0.41792414  0.82267499     0.22000
C154        C  0.86021273  0.43536952  0.90676519    -0.52800
C155        C  0.85071905  0.43460035  0.85612385     0.11200
C156        C  0.89828115  0.38290413  0.89683689    -0.52400
C157        C  0.88839021  0.38254309  0.84592537     0.11700
H158        H  0.95895004  0.45072617  0.90321064     0.16200
H159        H  0.87510583  0.41758059  0.78131926     0.02000
H160        H  0.83979012  0.44607522  0.93511809     0.16500
H161        H  0.90033249  0.35968756  0.91833637     0.16300
In162      In  0.98652306  0.50083465  0.73909510     1.36900
C163        C  0.02838033  0.45757617  0.67907967     0.79200
O164        O  0.04357555  0.03409630  0.75858090    -0.59200
O165        O  0.99667116  0.03029326  0.81304308    -0.50100
C166        C  0.94738394  0.04267667  0.68411735     0.71900
O167        O  0.98249765  0.03204241  0.67292488    -0.45000
C168        C  0.94637279  0.45781738  0.79935107     0.76600
O169        O  0.99245212  0.46729887  0.66934490    -0.56900
O170        O  0.98175307  0.46884720  0.80931792    -0.46900
O171        O  0.04287540  0.46909974  0.72057980    -0.53300
C172        C  0.03052437  0.04315486  0.80173969     0.86800
O173        O  0.93368764  0.03098335  0.72513733    -0.55200
O174        O  0.93190779  0.46740909  0.75697266    -0.58500
In175      In  0.29317514  0.00253960  0.25177299     1.36900
C176        C  0.23569315  0.03251743  0.19461756     0.79200
O177        O  0.24646576  0.46325177  0.26021801    -0.59200
O178        O  0.25538673  0.49818385  0.32152005    -0.50100
C179        C  0.34344672  0.45693267  0.21323898     0.71900
O180        O  0.33145212  0.48171868  0.18701614    -0.45000
C181        C  0.34331319  0.04976560  0.29213658     0.76600
O182        O  0.25582162  0.00743189  0.17885730    -0.56900
O183        O  0.32865531  0.02604955  0.31804964    -0.46900
O184        O  0.24671538  0.04369299  0.23782286    -0.53300
C185        C  0.23537069  0.47341709  0.30355203     0.86800
O186        O  0.33094151  0.45701191  0.25855242    -0.55200
O187        O  0.33362088  0.04878402  0.24535822    -0.58500
In188      In  0.69707923  0.50153265  0.24605185     1.36900
C189        C  0.75185135  0.02939828  0.29416803     0.79200
O190        O  0.74514090  0.46170598  0.23586472    -0.59200
O191        O  0.72912168  0.49136175  0.17139113    -0.50100
C192        C  0.64738902  0.45445777  0.28256954     0.71900
O193        O  0.66279361  0.47752297  0.31018600    -0.45000
C194        C  0.64359454  0.04893646  0.20923372     0.76600
O195        O  0.72891661  0.00737488  0.31336049    -0.56900
O196        O  0.65446250  0.02510022  0.18000373    -0.46900
O197        O  0.74323370  0.03741539  0.24888448    -0.53300
C198        C  0.75188188  0.46871821  0.18999482     0.86800
O199        O  0.65575584  0.45617807  0.23584895    -0.55200
O200        O  0.65693690  0.04697050  0.25442348    -0.58500
C201        C  0.57711615  0.16863258  0.07656594     0.88100
C202        C  0.54723017  0.18853384  0.11002607    -0.52100
C203        C  0.55733514  0.18885668  0.16090992     0.11000
C204        C  0.59618682  0.16824607  0.17382138     0.22000
C205        C  0.61941454  0.18375224  0.08946619    -0.52800
C206        C  0.62931320  0.18324037  0.14001703     0.11200
C207        C  0.57852806  0.13289255  0.09978687    -0.52400
C208        C  0.58896127  0.13278876  0.15050783     0.11700
H209        H  0.52157782  0.20270229  0.09435873     0.16200
H210        H  0.60463007  0.16811930  0.21509183     0.02000
H211        H  0.64008809  0.19338921  0.06085516     0.16500
H212        H  0.57501803  0.10955121  0.07815727     0.16300
C213        C  0.41439844  0.33785906  0.07666632     0.88100
C214        C  0.44553485  0.32007446  0.11151690    -0.52100
C215        C  0.43496480  0.31997376  0.16197908     0.11000
C216        C  0.39456873  0.33893874  0.17293404     0.22000
C217        C  0.37339757  0.32054379  0.08780692    -0.52800
C218        C  0.36300480  0.32153709  0.13776091     0.11200
C219        C  0.41027672  0.37378940  0.09923899    -0.52400
C220        C  0.39937614  0.37439704  0.14948504     0.11700
H221        H  0.47208539  0.30672063  0.09703191     0.16200
H222        H  0.38572604  0.33930319  0.21378622     0.02000
H223        H  0.35391778  0.30903408  0.05847919     0.16500
H224        H  0.41270614  0.39652781  0.07652288     0.16300
C225        C  0.40849295  0.16891944  0.43453474     0.88100
C226        C  0.44077906  0.18738950  0.40348648    -0.52100
C227        C  0.43326215  0.18708680  0.35201572     0.11000
C228        C  0.39455307  0.16690403  0.33610501     0.22000
C229        C  0.36753382  0.18469345  0.41801484    -0.52800
C230        C  0.36033266  0.18335452  0.36689640     0.11200
C231        C  0.40683435  0.13261082  0.41177861    -0.52400
C232        C  0.39902063  0.13165753  0.36027698     0.11700
H233        H  0.46561477  0.20176725  0.42115346     0.16200
H234        H  0.38825130  0.16624368  0.29427984     0.02000
H235        H  0.34575130  0.19549197  0.44465231     0.16500
H236        H  0.40782508  0.10967290  0.43404960     0.16300
C237        C  0.58558809  0.34485135  0.43418463     0.88100
C238        C  0.55319839  0.32387344  0.40441807    -0.52100
C239        C  0.56191295  0.31983024  0.35361320     0.11000
C240        C  0.60146060  0.33779101  0.33723932     0.22000
C241        C  0.62648947  0.32712393  0.42325690    -0.52800
C242        C  0.63470857  0.32359230  0.37278577     0.11200
C243        C  0.58804349  0.37845009  0.40554815    -0.52400
C244        C  0.59662797  0.37480126  0.35497345     0.11700
H245        H  0.52682435  0.31214242  0.42161281     0.16200
H246        H  0.60860642  0.33487459  0.29603352     0.02000
H247        H  0.64744918  0.31857910  0.45302972     0.16500
H248        H  0.58612398  0.40300005  0.42441335     0.16300
In249      In  0.49604076  0.25390856  0.25936655     1.36900
C250        C  0.53529500  0.21058919  0.19782260     0.79200
O251        O  0.55327285  0.28314361  0.28033387    -0.59200
O252        O  0.50118526  0.28964661  0.32686070    -0.50100
C253        C  0.45700603  0.29836848  0.19923179     0.71900
O254        O  0.49290138  0.28813035  0.19164002    -0.45000
C255        C  0.45602610  0.20958692  0.31753687     0.76600
O256        O  0.49995591  0.22181252  0.18852731    -0.56900
O257        O  0.49026124  0.22209297  0.32967615    -0.46900
O258        O  0.55060383  0.22072637  0.23976849    -0.53300
C259        C  0.53802945  0.29724450  0.31912251     0.86800
O260        O  0.44102738  0.28687767  0.23915373    -0.55200
O261        O  0.44212035  0.21934580  0.27501546    -0.58500
In262      In  0.28574869  0.49772958  0.74687454     1.36900
C263        C  0.23050031  0.46673707  0.68928683     0.79200
O264        O  0.33051903  0.45586077  0.73158520    -0.59200
O265        O  0.31905862  0.47029413  0.80876661    -0.50100
C266        C  0.33727592  0.04662568  0.72145978     0.71900
O267        O  0.32163234  0.02719922  0.68801953    -0.45000
C268        C  0.22964350  0.02947730  0.79427125     0.76600
O269        O  0.25139912  0.49098879  0.67263794    -0.56900
O270        O  0.25054899  0.00646770  0.81520391    -0.46900
O271        O  0.24032827  0.45659895  0.73314521    -0.53300
C272        C  0.33753178  0.45086449  0.77834736     0.86800
O273        O  0.32881127  0.04003092  0.76705361    -0.55200
O274        O  0.23990763  0.03724246  0.74973728    -0.58500
In275      In  0.69242624  0.00094740  0.74035027     1.36900
C276        C  0.74813269  0.03221356  0.68537304     0.79200
O277        O  0.64941493  0.04469207  0.72608882    -0.59200
O278        O  0.66121242  0.02966437  0.80267216    -0.50100
C279        C  0.63505134  0.45079266  0.71346758     0.71900
O280        O  0.64959197  0.47138810  0.68203140    -0.45000
C281        C  0.74481968  0.46993176  0.79356684     0.76600
O282        O  0.72553275  0.00932950  0.66639222    -0.56900
O283        O  0.72144072  0.49133642  0.81414327    -0.46900
O284        O  0.74043699  0.04046285  0.73076177    -0.53300
C285        C  0.64310488  0.04974595  0.77296751     0.86800
O286        O  0.64563535  0.45578656  0.75935589    -0.55200
O287        O  0.73634675  0.46236574  0.74784163    -0.58500
C288        C  0.39479742  0.34281885  0.92954196     0.88100
C289        C  0.39592082  0.37580879  0.89946091    -0.52100
C290        C  0.38913655  0.37157753  0.84839711     0.11000
C291        C  0.38217390  0.33468574  0.83158629     0.22000
C292        C  0.35312295  0.32682043  0.91541675    -0.52800
C293        C  0.34655139  0.32283957  0.86433327     0.11200
C294        C  0.42670672  0.31967907  0.90365674    -0.52400
C295        C  0.41967294  0.31522457  0.85219477     0.11700
H296        H  0.39844631  0.40060095  0.91756046     0.16200
H297        H  0.37641271  0.33149027  0.78987155     0.02000
H298        H  0.33037630  0.32004152  0.94345990     0.16500
H299        H  0.45151649  0.30707034  0.92369419     0.16300
C300        C  0.40365468  0.15607277  0.58113213     0.88100
C301        C  0.40076867  0.12345116  0.61176074    -0.52100
C302        C  0.38902590  0.12839164  0.66082880     0.11000
C303        C  0.38150366  0.16553850  0.67554896     0.22000
C304        C  0.36127262  0.17278793  0.58659259    -0.52800
C305        C  0.34986573  0.17772035  0.63591538     0.11200
C306        C  0.43324837  0.17874615  0.61227924    -0.52400
C307        C  0.42155408  0.18377044  0.66197619     0.11700
H308        H  0.40508574  0.09838528  0.59525398     0.16200
H309        H  0.37174120  0.16926294  0.71572530     0.02000
H310        H  0.34179710  0.17952831  0.55430105     0.16500
H311        H  0.46054356  0.18996562  0.59638118     0.16300
C312        C  0.56509943  0.33310737  0.57910708     0.88100
C313        C  0.56749431  0.36838547  0.60408341    -0.52100
C314        C  0.57833490  0.36784881  0.65453367     0.11000
C315        C  0.58475696  0.33212398  0.67599447     0.22000
C316        C  0.60688893  0.31664443  0.59072523    -0.52800
C317        C  0.61706990  0.31639754  0.64119684     0.11200
C318        C  0.53463530  0.31343194  0.61169312    -0.52400
C319        C  0.54515446  0.31260782  0.66256492     0.11700
H320        H  0.56421057  0.39170687  0.58280527     0.16200
H321        H  0.59346997  0.33178298  0.71717374     0.02000
H322        H  0.62685683  0.30650164  0.56144122     0.16500
H323        H  0.50832447  0.30008440  0.59567992     0.16300
C324        C  0.57517924  0.15337130  0.92946708     0.88100
C325        C  0.57776711  0.12104140  0.89660847    -0.52100
C326        C  0.58727019  0.12688076  0.84686730     0.11000
C327        C  0.59263138  0.16449841  0.83417753     0.22000
C328        C  0.61669185  0.17095404  0.92193544    -0.52800
C329        C  0.62557458  0.17669738  0.87224703     0.11200
C330        C  0.54356070  0.17577093  0.90176638    -0.52400
C331        C  0.55289988  0.18190387  0.85178444     0.11700
H332        H  0.57554287  0.09573139  0.91213637     0.16200
H333        H  0.60046234  0.16911804  0.79364770     0.02000
H334        H  0.63754614  0.17760306  0.95312832     0.16500
H335        H  0.51702243  0.18655610  0.92040820     0.16300
In336      In  0.48526694  0.24822344  0.76092867     1.36900
C337        C  0.44363653  0.29192852  0.81966571     0.79200
O338        O  0.53896249  0.28165625  0.74105079    -0.59200
O339        O  0.48783242  0.28013865  0.69056285    -0.50100
C340        C  0.52850940  0.20480212  0.81875271     0.71900
O341        O  0.49181443  0.21243600  0.82754067    -0.45000
C342        C  0.44473385  0.20536833  0.69867291     0.76600
O343        O  0.47917625  0.28197449  0.83103032    -0.56900
O344        O  0.48058899  0.21535159  0.69039353    -0.46900
O345        O  0.42970354  0.27991128  0.77825023    -0.53300
C346        C  0.52325273  0.29135432  0.69940213     0.86800
O347        O  0.54294183  0.21882431  0.77986340    -0.55200
O348        O  0.43008171  0.21597461  0.74022786    -0.58500
C349        C  0.61832324  0.07700588  0.79198819    -0.11600
C350        C  0.60139529  0.09995303  0.81390519    -0.13200
C351        C  0.60986873  0.42271855  0.69761211    -0.11600
C352        C  0.59270913  0.39797199  0.68059260    -0.13200
C353        C  0.37835592  0.39983656  0.81684697    -0.11600
C354        C  0.36272758  0.42374245  0.79627097    -0.13200
C355        C  0.36103982  0.07539800  0.70810638    -0.11600
C356        C  0.37644424  0.10033322  0.69101162    -0.13200
C357        C  0.58152605  0.35001484  0.49118891    -0.14800
C358        C  0.55606344  0.33332057  0.52217571    -0.30000
H359        H  0.60544989  0.36547543  0.50886888     0.14200
H360        H  0.53183299  0.31732706  0.50689234     0.14800
C361        C  0.41418878  0.17410429  0.49163401    -0.14800
C362        C  0.41448762  0.14923253  0.52602640    -0.30000
H363        H  0.41208955  0.20005790  0.50554954     0.14200
H364        H  0.41743039  0.12313867  0.51379597     0.14800
C365        C  0.39703665  0.34950459  0.98649910    -0.14800
C366        C  0.42373600  0.33605026  0.02012426    -0.30000
H367        H  0.37204950  0.36463946  0.00157264     0.14200
H368        H  0.44956473  0.32117151  0.00733546     0.14800
C369        C  0.56740131  0.14676251  0.98541814    -0.14800
C370        C  0.56834986  0.17231959  0.01979738    -0.30000
H371        H  0.56643469  0.12072523  0.99765042     0.14200
H372        H  0.56904618  0.19803982  0.00547924     0.14800
C373        C  0.61944199  0.07718177  0.19183518    -0.11600
C374        C  0.60293119  0.10219086  0.17513106    -0.13200
C375        C  0.60893531  0.40330037  0.32466579    -0.11600
C376        C  0.62407428  0.42716034  0.30353193    -0.13200
C377        C  0.38449790  0.10103962  0.33458803    -0.11600
C378        C  0.36764674  0.07682337  0.31469252    -0.13200
C379        C  0.36777523  0.42961589  0.19243511    -0.11600
C380        C  0.38450430  0.40504429  0.17408611    -0.13200
C381        C  0.78020493  0.45654726  0.81892989    -0.11600
C382        C  0.81211136  0.44652310  0.83650800    -0.13200
C383        C  0.81327032  0.05828495  0.64275025    -0.11600
C384        C  0.78199832  0.04663077  0.65895842    -0.13200
C385        C  0.16394072  0.05574870  0.83529975    -0.11600
C386        C  0.19500116  0.04453905  0.81797302    -0.13200
C387        C  0.19564167  0.45334397  0.66254951    -0.11600
C388        C  0.16356171  0.44362589  0.64485951    -0.13200
C389        C  0.31061131  0.19169237  0.64971816    -0.11600
C390        C  0.27885157  0.20345575  0.66492507    -0.13200
C391        C  0.27759039  0.29916322  0.82330924    -0.11600
C392        C  0.30853036  0.31015461  0.84294235    -0.13200
C393        C  0.11575637  0.17576350  0.80514147    -0.11600
C394        C  0.10082634  0.15117979  0.82527118    -0.13200
C395        C  0.11358654  0.32544225  0.67927545    -0.11600
C396        C  0.09850125  0.35008979  0.65912990    -0.13200
C397        C  0.66374656  0.19114908  0.85652478    -0.11600
C398        C  0.69452578  0.20298847  0.83933303    -0.13200
C399        C  0.68714981  0.29260872  0.67755423    -0.11600
C400        C  0.65554602  0.30339322  0.65994123    -0.13200
C401        C  0.85711838  0.32723992  0.80265641    -0.11600
C402        C  0.87393418  0.35206218  0.82035060    -0.13200
C403        C  0.87450360  0.14941452  0.68514606    -0.11600
C404        C  0.85667571  0.17292336  0.70457692    -0.13200
C405        C  0.91072472  0.39753118  0.01108617    -0.14800
C406        C  0.90967886  0.42299131  0.97736011    -0.30000
H407        H  0.91228276  0.37155880  0.99789655     0.14200
H408        H  0.90893954  0.44875143  0.99228722     0.14800
C409        C  0.81495166  0.44054765  0.14426937    -0.11600
C410        C  0.78470643  0.45311369  0.16239262    -0.13200
C411        C  0.91407878  0.07591130  0.48302730    -0.14800
C412        C  0.91384409  0.10137676  0.51745539    -0.30000
H413        H  0.91298384  0.05011738  0.49708011     0.14200
H414        H  0.91552414  0.12744659  0.50549485     0.14800
C415        C  0.78678472  0.04313653  0.32060323    -0.11600
C416        C  0.81826720  0.05348441  0.33932882    -0.13200
C417        C  0.07186512  0.07651459  0.97946485    -0.14800
C418        C  0.07136361  0.10077474  0.01562924    -0.30000
H419        H  0.07307883  0.05034236  0.99178613     0.14200
H420        H  0.06961304  0.12705235  0.00460398     0.14800
C421        C  0.20110472  0.04617228  0.16704442    -0.11600
C422        C  0.16979327  0.05693876  0.14821954    -0.13200
C423        C  0.07109249  0.39693268  0.46735809    -0.14800
C424        C  0.06749400  0.42166140  0.50243316    -0.30000
H425        H  0.07243586  0.37074495  0.47889103     0.14200
H426        H  0.06646398  0.44764030  0.48918811     0.14800
C427        C  0.20080861  0.45881573  0.32867239    -0.11600
C428        C  0.16962922  0.44633417  0.34405201    -0.13200
C429        C  0.32275608  0.19498606  0.34442774    -0.11600
C430        C  0.29168319  0.20507765  0.32495820    -0.13200
C431        C  0.29315307  0.29694838  0.17033529    -0.11600
C432        C  0.32474082  0.30838281  0.15507664    -0.13200
C433        C  0.10775235  0.14810596  0.18439808    -0.11600
C434        C  0.12543533  0.17223813  0.20226206    -0.13200
C435        C  0.11032915  0.35216556  0.29833206    -0.11600
C436        C  0.12644929  0.32777960  0.27974069    -0.13200
C437        C  0.67213138  0.30873298  0.35464466    -0.11600
C438        C  0.70267885  0.29628782  0.33728211    -0.13200
C439        C  0.70051526  0.20366650  0.17773679    -0.11600
C440        C  0.66852630  0.19412258  0.15948368    -0.13200
C441        C  0.88283893  0.14744608  0.32858802    -0.11600
C442        C  0.86670472  0.17244972  0.31146881    -0.13200
C443        C  0.86531942  0.32318931  0.20078900    -0.11600
C444        C  0.87982737  0.34716978  0.17933439    -0.13200
In445      In  0.79501515  0.75034228  0.25891391     1.36900
C446        C  0.73766278  0.71949027  0.20413187     0.79200
O447        O  0.83490601  0.70505679  0.24398552    -0.59200
O448        O  0.82937391  0.72257444  0.32062880    -0.50100
C449        C  0.84539214  0.79785380  0.22629505     0.71900
O450        O  0.83049119  0.77536223  0.19719579    -0.45000
C451        C  0.73837389  0.78309480  0.31136848     0.76600
O452        O  0.75998411  0.74217401  0.18557475    -0.56900
O453        O  0.76229437  0.76219492  0.33241659    -0.46900
O454        O  0.74637371  0.71110252  0.24925295    -0.53300
C455        C  0.84424108  0.70098878  0.29032296     0.86800
O456        O  0.83604595  0.79541510  0.27262405    -0.55200
O457        O  0.74500070  0.78854454  0.26497790    -0.58500
In458      In  0.20160332  0.74706010  0.24498835     1.36900
C459        C  0.25915053  0.77872631  0.19433295     0.79200
O460        O  0.15723443  0.78793445  0.22325442    -0.59200
O461        O  0.17218080  0.78109916  0.30200363    -0.50100
C462        C  0.15055414  0.69775427  0.21985413     0.71900
O463        O  0.16935704  0.71466061  0.18696331    -0.45000
C464        C  0.25628769  0.71499976  0.30005986     0.76600
O465        O  0.23563339  0.75750609  0.17264132    -0.56900
O466        O  0.23200433  0.73606020  0.31981224    -0.46900
O467        O  0.25190937  0.78480048  0.24058061    -0.53300
C468        C  0.15284018  0.79778182  0.26876451     0.86800
O469        O  0.15714157  0.70636213  0.26566738    -0.55200
O470        O  0.25067419  0.70861580  0.25328108    -0.58500
C471        C  0.08089855  0.90351537  0.41410737     0.88100
C472        C  0.08636687  0.87163678  0.38131357    -0.52100
C473        C  0.09734389  0.87796919  0.33244509     0.11000
C474        C  0.10164092  0.91574719  0.32015252     0.22000
C475        C  0.12175042  0.92268963  0.40942499    -0.52800
C476        C  0.13245165  0.92893432  0.36034065     0.11200
C477        C  0.04930539  0.92499629  0.38455870    -0.52400
C478        C  0.06043862  0.93181341  0.33526367     0.11700
H479        H  0.08437529  0.84615019  0.39629046     0.16200
H480        H  0.11088673  0.92068447  0.28020580     0.02000
H481        H  0.14093797  0.92984875  0.44198567     0.16500
H482        H  0.02153938  0.93478161  0.40158214     0.16300
C483        C  0.07734309  0.59360177  0.07258114     0.88100
C484        C  0.07962216  0.62553580  0.10612737    -0.52100
C485        C  0.09025411  0.61950126  0.15562655     0.11000
C486        C  0.09694436  0.58195927  0.16774128     0.22000
C487        C  0.11956302  0.57660985  0.07997771    -0.52800
C488        C  0.12965889  0.57066888  0.12977756     0.11200
C489        C  0.04686559  0.57036756  0.09967714    -0.52400
C490        C  0.05735880  0.56398352  0.14958526     0.11700
H491        H  0.07680095  0.65096230  0.09105305     0.16200
H492        H  0.10554608  0.57728049  0.20828456     0.02000
H493        H  0.14002123  0.57077815  0.04871948     0.16500
H494        H  0.02011650  0.55943481  0.08082397     0.16300
C495        C  0.91443875  0.58425348  0.42487192     0.88100
C496        C  0.91203545  0.61934072  0.40030632    -0.52100
C497        C  0.90046933  0.61840572  0.35004311     0.11000
C498        C  0.89350238  0.58247452  0.32837270     0.22000
C499        C  0.87231427  0.56804784  0.41402259    -0.52800
C500        C  0.86146155  0.56743184  0.36377752     0.11200
C501        C  0.94419543  0.56402499  0.39146543    -0.52400
C502        C  0.93306463  0.56268230  0.34081040     0.11700
H503        H  0.91569502  0.64281343  0.42179291     0.16200
H504        H  0.88420539  0.58178862  0.28738135     0.02000
H505        H  0.85255930  0.55843710  0.44366350     0.16500
H506        H  0.97059002  0.55068064  0.40688491     0.16300
C507        C  0.90544824  0.90378806  0.07132221     0.88100
C508        C  0.90406576  0.87134321  0.10294745    -0.52100
C509        C  0.89491617  0.87675720  0.15297063     0.11000
C510        C  0.88823893  0.91414974  0.16726329     0.22000
C511        C  0.86349238  0.92058079  0.07992537    -0.52800
C512        C  0.85455668  0.92587607  0.12999583     0.11200
C513        C  0.93657834  0.92667001  0.09958996    -0.52400
C514        C  0.92739410  0.93236046  0.14992482     0.11700
H515        H  0.90744750  0.84613945  0.08658384     0.16200
H516        H  0.88059083  0.91836190  0.20808000     0.02000
H517        H  0.84238158  0.92697864  0.04909880     0.16500
H518        H  0.96280534  0.93790335  0.08118729     0.16300
In519      In  0.99250477  0.49727246  0.24050573     1.36900
C520        C  0.95460096  0.54082005  0.30351041     0.79200
O521        O  0.04861343  0.52839407  0.22285632    -0.59200
O522        O  0.99789885  0.53148496  0.17213506    -0.50100
C523        C  0.03664670  0.95455560  0.30113313     0.71900
O524        O  0.99985772  0.96222141  0.30888170    -0.45000
C525        C  0.95166130  0.95519103  0.18375291     0.76600
O526        O  0.98911922  0.52811028  0.31301432    -0.56900
O527        O  0.98737560  0.96472922  0.17348315    -0.46900
O528        O  0.93955826  0.53214311  0.26069993    -0.53300
C529        C  0.03393835  0.54083509  0.18244169     0.86800
O530        O  0.05170103  0.96867296  0.26264248    -0.55200
O531        O  0.93801865  0.96729878  0.22486689    -0.58500
In532      In  0.78323705  0.75088972  0.75725343     1.36900
C533        C  0.72590483  0.78401070  0.70539404     0.79200
O534        O  0.73167365  0.71433423  0.76346067    -0.59200
O535        O  0.75408533  0.73759777  0.83201783    -0.50100
C536        C  0.83171963  0.70160054  0.72426910     0.71900
O537        O  0.81626362  0.72333167  0.69489964    -0.45000
C538        C  0.83496202  0.79873480  0.78937581     0.76600
O539        O  0.74638020  0.76040126  0.68552815    -0.56900
O540        O  0.81376255  0.78155683  0.81948951    -0.46900
O541        O  0.73661475  0.79225075  0.75014803    -0.53300
C542        C  0.72808584  0.71821534  0.81092260     0.86800
O543        O  0.82354083  0.70549488  0.77084122    -0.55200
O544        O  0.83068015  0.79098990  0.74279782    -0.58500
In545      In  0.18701175  0.74768436  0.74303648     1.36900
C546        C  0.24536558  0.71553948  0.69159860     0.79200
O547        O  0.23589960  0.78722649  0.75066373    -0.59200
O548        O  0.22165771  0.75867054  0.81647079    -0.50100
C549        C  0.13826157  0.79537435  0.70282308     0.71900
O550        O  0.15184287  0.77088015  0.67690220    -0.45000
C551        C  0.13753685  0.70078344  0.78267297     0.76600
O552        O  0.22007419  0.73494536  0.66978625    -0.56900
O553        O  0.14840451  0.72702815  0.80690575    -0.46900
O554        O  0.23897210  0.71074203  0.73826462    -0.53300
C555        C  0.24423302  0.78064160  0.79653773     0.86800
O556        O  0.14795655  0.79475649  0.74952131    -0.55200
O557        O  0.15031688  0.69910176  0.73752406    -0.58500
C558        C  0.07546787  0.91492713  0.56135072     0.88100
C559        C  0.04422413  0.93350650  0.59453183    -0.52100
C560        C  0.05344931  0.93352375  0.64562501     0.11000
C561        C  0.09294924  0.91379756  0.65900938     0.22000
C562        C  0.11684918  0.93093686  0.57570898    -0.52800
C563        C  0.12600597  0.93002875  0.62631582     0.11200
C564        C  0.07789193  0.87882244  0.58361837    -0.52400
C565        C  0.08743253  0.87836114  0.63472670     0.11700
H566        H  0.01841257  0.94732134  0.57853474     0.16200
H567        H  0.10080750  0.91348819  0.70044142     0.02000
H568        H  0.13761556  0.94145702  0.54789784     0.16500
H569        H  0.07494887  0.85569015  0.56132811     0.16300
C570        C  0.07386985  0.58210745  0.92444753     0.88100
C571        C  0.04160509  0.56460919  0.89017233    -0.52100
C572        C  0.05043381  0.56489000  0.83916936     0.11000
C573        C  0.09049402  0.58368231  0.82708913     0.22000
C574        C  0.11445651  0.56511234  0.91040122    -0.51600
C575        C  0.12309796  0.56609147  0.85994379     0.11200
C576        C  0.07753059  0.61834329  0.90296699    -0.52400
C577        C  0.08648288  0.61899744  0.85199027     0.11700
H578        H  0.01551543  0.55118336  0.90536758     0.16200
H579        H  0.09802232  0.58418291  0.78582263     0.02000
H580        H  0.13489609  0.55350264  0.93826154     0.16500
H581        H  0.07573482  0.64134803  0.92567551     0.16300
C582        C  0.89510422  0.59438028  0.57025321     0.88100
C583        C  0.92707305  0.57227704  0.59820645    -0.52100
C584        C  0.91827368  0.56699792  0.64860265     0.11000
C585        C  0.87878981  0.58478330  0.66635572     0.22000
C586        C  0.85386048  0.57686174  0.57930108    -0.52800
C587        C  0.84534480  0.57207257  0.62931343     0.11200
C588        C  0.89307624  0.62712817  0.60198900    -0.52400
C589        C  0.88422639  0.62215433  0.65209809     0.11700
H590        H  0.95359918  0.56111272  0.58020138     0.16200
H591        H  0.87141696  0.58087102  0.70720059     0.02000
H592        H  0.83264024  0.56977870  0.54868267     0.16500
H593        H  0.89516381  0.65215201  0.58539556     0.16300
C594        C  0.90485189  0.91787283  0.92399779     0.88100
C595        C  0.93605930  0.93620984  0.89076179    -0.52100
C596        C  0.92645221  0.93589629  0.83967307     0.11000
C597        C  0.88674354  0.91643896  0.82643855     0.22000
C598        C  0.86344435  0.93409317  0.91026102    -0.52800
C599        C  0.85404575  0.93310996  0.85960054     0.11200
C600        C  0.90198596  0.88178682  0.90096198    -0.52400
C601        C  0.89218459  0.88121725  0.85004775     0.11700
H602        H  0.96218219  0.94988321  0.90664826     0.16200
H603        H  0.87866411  0.91587668  0.78505792     0.02000
H604        H  0.84298170  0.94495272  0.93844196     0.16500
H605        H  0.90424966  0.85866665  0.92268031     0.16300
In606      In  0.98972612  0.99876644  0.74181846     1.36900
C607        C  0.03035549  0.95493048  0.68204494     0.79200
O608        O  0.04100549  0.53469011  0.75892836    -0.59200
O609        O  0.99192565  0.53269093  0.81062345    -0.50100
C610        C  0.94295990  0.54440711  0.68176519     0.71900
O611        O  0.97934212  0.53628252  0.67215858    -0.45000
C612        C  0.94945586  0.95633992  0.80260470     0.76600
O613        O  0.99431158  0.96462851  0.67287705    -0.56900
O614        O  0.98609773  0.96507491  0.81034643    -0.46900
O615        O  0.04551531  0.96662924  0.72310542    -0.53300
C616        C  0.02697690  0.54411941  0.80144446     0.86800
O617        O  0.92905245  0.53094287  0.72136608    -0.55200
O618        O  0.93364339  0.96799789  0.76218797    -0.58500
In619      In  0.29278576  0.50432845  0.25000943     1.36900
C620        C  0.23520628  0.53373279  0.19249173     0.79200
O621        O  0.24601892  0.96206108  0.26158807    -0.59200
O622        O  0.25722184  0.99538006  0.32426581    -0.50100
C623        C  0.34372277  0.95539876  0.21408054     0.71900
O624        O  0.33036801  0.97965752  0.18779368    -0.45000
C625        C  0.34325646  0.55121784  0.29047049     0.76600
O626        O  0.25828420  0.51091603  0.17513770    -0.56900
O627        O  0.33070050  0.52624610  0.31537783    -0.46900
O628        O  0.24333003  0.54301962  0.23759745    -0.53300
C629        C  0.23623337  0.97135429  0.30580889     0.86800
O630        O  0.33296169  0.95602912  0.26012296    -0.55200
O631        O  0.33103896  0.55186355  0.24463733    -0.58500
In632      In  0.69308386  0.99937863  0.24038541     1.36900
C633        C  0.75572940  0.53127736  0.30089396     0.79200
O634        O  0.73876677  0.95749124  0.23105069    -0.59200
O635        O  0.72856147  0.98984940  0.16787662    -0.50100
C636        C  0.64233299  0.95372766  0.27779637     0.71900
O637        O  0.65993207  0.97577446  0.30530825    -0.45000
C638        C  0.64750204  0.55061452  0.21260343     0.76600
O639        O  0.73266024  0.50916495  0.31949801    -0.56900
O640        O  0.66053695  0.52735358  0.18387622    -0.46900
O641        O  0.74729238  0.53960031  0.25569577    -0.53300
C642        C  0.74914852  0.96595576  0.18690245     0.86800
O643        O  0.64903890  0.95578358  0.23060516    -0.55200
O644        O  0.65861682  0.54833526  0.25868216    -0.58500
C645        C  0.57993104  0.66943695  0.07668305     0.88100
C646        C  0.54969218  0.68873879  0.11030897    -0.52100
C647        C  0.55987068  0.68910840  0.16111702     0.11000
C648        C  0.59926524  0.66913561  0.17382586     0.22000
C649        C  0.62192244  0.68512367  0.08942549    -0.52800
C650        C  0.63197365  0.68466208  0.13990206     0.11200
C651        C  0.58227238  0.63361051  0.09970657    -0.52400
C652        C  0.59280608  0.63358489  0.15045524     0.11700
H653        H  0.52367917  0.70253852  0.09479361     0.16200
H654        H  0.60781023  0.66910715  0.21506397     0.02000
H655        H  0.64231665  0.69509204  0.06075015     0.16500
H656        H  0.57924198  0.61026631  0.07796645     0.16300
C657        C  0.41311505  0.83693912  0.07431616     0.88100
C658        C  0.44421522  0.81900166  0.10907250    -0.52100
C659        C  0.43371762  0.81871623  0.15953594     0.11000
C660        C  0.39324743  0.83748032  0.17059560     0.22000
C661        C  0.37206185  0.81955168  0.08517770    -0.52800
C662        C  0.36172509  0.82014303  0.13524073     0.11200
C663        C  0.40889890  0.87276371  0.09731976    -0.52400
C664        C  0.39799305  0.87305563  0.14759755     0.11700
H665        H  0.47093196  0.80590934  0.09453162     0.16200
H666        H  0.38441601  0.83762068  0.21145044     0.02000
H667        H  0.35271911  0.80805424  0.05570354     0.16500
H668        H  0.41148323  0.89564654  0.07496469     0.16300
C669        C  0.41027937  0.66879349  0.43391857     0.88100
C670        C  0.44162796  0.68795510  0.40226624    -0.52100
C671        C  0.43332549  0.68779465  0.35093997     0.11000
C672        C  0.39474616  0.66725233  0.33578069     0.22000
C673        C  0.36873080  0.68401364  0.41871243    -0.52800
C674        C  0.36065765  0.68276880  0.36780844     0.11200
C675        C  0.40908880  0.63262236  0.41053481    -0.52400
C676        C  0.40041735  0.63196547  0.35920311     0.11700
H677        H  0.46665663  0.70235111  0.41944075     0.16200
H678        H  0.38772003  0.66676920  0.29411482     0.02000
H679        H  0.34697294  0.69394547  0.44612219     0.16500
H680        H  0.41101321  0.60952638  0.43234309     0.16300
C681        C  0.58675445  0.84527999  0.43403505     0.88100
C682        C  0.55477702  0.82308292  0.40526353    -0.52100
C683        C  0.56282185  0.81900892  0.35415819     0.11000
C684        C  0.60151221  0.83776168  0.33683937     0.22000
C685        C  0.62811474  0.82857357  0.42260274    -0.52800
C686        C  0.63578272  0.82476794  0.37207074     0.11200
C687        C  0.58738691  0.87863253  0.40456852    -0.52400
C688        C  0.59524096  0.87469786  0.35385806     0.11700
H689        H  0.52890499  0.81107027  0.42316603     0.16200
H690        H  0.60832385  0.83474993  0.29555670     0.02000
H691        H  0.64979260  0.82086053  0.45212031     0.16500
H692        H  0.58451452  0.90330622  0.42285175     0.16300
In693      In  0.49654447  0.75398646  0.25789349     1.36900
C694        C  0.53721085  0.71046375  0.19790053     0.79200
O695        O  0.55159275  0.78668419  0.27665590    -0.59200
O696        O  0.50351032  0.78577299  0.32996801    -0.50100
C697        C  0.45640451  0.79763945  0.19699100     0.71900
O698        O  0.49186512  0.78678155  0.18846154    -0.45000
C699        C  0.45612421  0.70987271  0.31585581     0.76600
O700        O  0.50073209  0.71931071  0.18980719    -0.56900
O701        O  0.49122991  0.72109183  0.32685523    -0.46900
O702        O  0.55296587  0.72285268  0.23816574    -0.53300
C703        C  0.53851159  0.79679872  0.31928233     0.86800
O704        O  0.44151981  0.78736640  0.23830386    -0.55200
O705        O  0.44159177  0.72053627  0.27412316    -0.58500
In706      In  0.28747363  0.99718455  0.74511172     1.36900
C707        C  0.23125937  0.96548019  0.69048541     0.79200
O708        O  0.32947368  0.95371046  0.72879280    -0.59200
O709        O  0.32132848  0.96950671  0.80614112    -0.50100
C710        C  0.33544992  0.54734614  0.72250741     0.71900
O711        O  0.32288594  0.52573330  0.69021040    -0.45000
C712        C  0.22665119  0.52713810  0.79843247     0.76600
O713        O  0.25541716  0.98633287  0.67048791    -0.56900
O714        O  0.24838937  0.50404088  0.81777267    -0.46900
O715        O  0.23793073  0.95911219  0.73684820    -0.53300
C716        C  0.33781254  0.94912719  0.77532333     0.86800
O717        O  0.32351108  0.54322238  0.76755535    -0.55200
O718        O  0.23670291  0.53639988  0.75451244    -0.58500
In719      In  0.68595373  0.50012317  0.74142249     1.36900
C720        C  0.74112681  0.53265671  0.68748897     0.79200
O721        O  0.64125895  0.54231275  0.72707501    -0.59200
O722        O  0.65518108  0.52868662  0.80393119    -0.50100
C723        C  0.64009821  0.95256628  0.71169864     0.71900
O724        O  0.65767736  0.97133932  0.68011985    -0.45000
C725        C  0.74987864  0.96990459  0.79441076     0.76600
O726        O  0.71984395  0.50897384  0.66833976    -0.56900
O727        O  0.72738789  0.99242527  0.81368216    -0.46900
O728        O  0.73206928  0.54123857  0.73232758    -0.53300
C729        C  0.63605608  0.54800655  0.77399588     0.86800
O730        O  0.64864594  0.95875103  0.75788837    -0.55200
O731        O  0.74133456  0.96178120  0.74893435    -0.58500
C732        C  0.39524951  0.84186817  0.92682494     0.88100
C733        C  0.39599911  0.87456275  0.89603901    -0.52100
C734        C  0.38914860  0.86979510  0.84509203     0.11000
C735        C  0.38254697  0.83274357  0.82902369     0.22000
C736        C  0.35381327  0.82541795  0.91313510    -0.52800
C737        C  0.34724043  0.82083976  0.86221785     0.11200
C738        C  0.42743106  0.81876458  0.90124208    -0.52400
C739        C  0.42035606  0.81387147  0.84980817     0.11700
H740        H  0.39833453  0.89953611  0.91358556     0.16200
H741        H  0.37669882  0.82914559  0.78739169     0.02000
H742        H  0.33122606  0.81864355  0.94138261     0.16500
H743        H  0.45257978  0.80669130  0.92139209     0.16300
C744        C  0.40530341  0.65532211  0.58057293     0.88100
C745        C  0.40186343  0.62259361  0.61101853    -0.52100
C746        C  0.39046092  0.62752764  0.66027388     0.11000
C747        C  0.38388902  0.66473521  0.67529856     0.22000
C748        C  0.36325416  0.67259013  0.58661776    -0.52800
C749        C  0.35215920  0.67736882  0.63615171     0.11200
C750        C  0.43549792  0.67747699  0.61161994    -0.52400
C751        C  0.42416559  0.68257007  0.66141488     0.11700
H752        H  0.40531851  0.59752761  0.59418814     0.16200
H753        H  0.37444935  0.66846213  0.71559959     0.02000
H754        H  0.34360275  0.67947910  0.55457103     0.16500
H755        H  0.46279009  0.68853613  0.59546472     0.16300
C756        C  0.56801338  0.83519887  0.58005149     0.88100
C757        C  0.56847899  0.87065993  0.60464001    -0.52100
C758        C  0.57900751  0.87074339  0.65530373     0.11000
C759        C  0.58670170  0.83525990  0.67729186     0.22000
C760        C  0.61055875  0.82033460  0.59253476    -0.52800
C761        C  0.62024702  0.82067769  0.64321645     0.11200
C762        C  0.53830706  0.81467174  0.61232992    -0.52400
C763        C  0.54822665  0.81427810  0.66329102     0.11700
H764        H  0.56506372  0.89372453  0.58276847     0.16200
H765        H  0.59487286  0.83531906  0.71864459     0.02000
H766        H  0.63136677  0.81086175  0.56367762     0.16500
H767        H  0.51284523  0.80040055  0.59597086     0.16300
C768        C  0.57613483  0.65430408  0.92985514     0.88100
C769        C  0.57701386  0.62175962  0.89754104    -0.52100
C770        C  0.58604457  0.62701123  0.84761639     0.11000
C771        C  0.59309919  0.66424362  0.83413173     0.22000
C772        C  0.61820976  0.67074959  0.92145278    -0.52800
C773        C  0.62681335  0.67593147  0.87152652     0.11200
C774        C  0.54517514  0.67739749  0.90224602    -0.52400
C775        C  0.55431053  0.68278784  0.85195004     0.11700
H776        H  0.57348459  0.59663105  0.91334996     0.16200
H777        H  0.60073705  0.66827107  0.79338818     0.02000
H778        H  0.63942872  0.67736870  0.95227125     0.16500
H779        H  0.51912388  0.68890277  0.92099102     0.16300
In780      In  0.48778756  0.74814058  0.75906904     1.36900
C781        C  0.44490471  0.79104878  0.81725290     0.79200
O782        O  0.54180999  0.78208841  0.74090727    -0.59200
O783        O  0.49118425  0.78087349  0.68970990    -0.50100
C784        C  0.53031371  0.70541829  0.81830494     0.71900
O785        O  0.49509622  0.71586931  0.82925090    -0.45000
C786        C  0.44744540  0.70450204  0.69761171     0.76600
O787        O  0.48095709  0.78226585  0.82831567    -0.56900
O788        O  0.48270469  0.71543104  0.68824723    -0.46900
O789        O  0.43110679  0.77841478  0.77610851    -0.53300
C790        C  0.52639857  0.79228596  0.69937237     0.86800
O791        O  0.54361487  0.71626216  0.77652597    -0.55200
O792        O  0.43332075  0.71466115  0.73968301    -0.58500
C793        C  0.61197482  0.57559009  0.79267271    -0.11600
C794        C  0.59696479  0.59939297  0.81441479    -0.13200
C795        C  0.61350225  0.92529003  0.69595972    -0.11600
C796        C  0.59480958  0.90100981  0.67982409    -0.13200
C797        C  0.37811578  0.89767960  0.81307481    -0.11600
C798        C  0.36248972  0.92160302  0.79266491    -0.13200
C799        C  0.35996561  0.57554166  0.70817565    -0.11600
C800        C  0.37655191  0.59973472  0.69027762    -0.13200
C801        C  0.58353741  0.85108230  0.49111139    -0.14800
C802        C  0.55892101  0.83441847  0.52306009    -0.30000
H803        H  0.60715618  0.86727247  0.50789672     0.14200
H804        H  0.53507350  0.81777779  0.50844547     0.14800
C805        C  0.41660696  0.67361714  0.49107174    -0.14800
C806        C  0.41580062  0.64857506  0.52524082    -0.30000
H807        H  0.41523388  0.69953669  0.50527383     0.14200
H808        H  0.41761051  0.62247855  0.51268499     0.14800
C809        C  0.39712215  0.84906568  0.98371255    -0.14800
C810        C  0.42303020  0.83524535  0.01786687    -0.30000
H811        H  0.37219755  0.86449049  0.99827234     0.14200
H812        H  0.44864824  0.81997937  0.00544054     0.14800
C813        C  0.56862054  0.64793540  0.98584256    -0.14800
C814        C  0.57086230  0.67339903  0.02011168    -0.30000
H815        H  0.56672488  0.62195056  0.99820474     0.14200
H816        H  0.57200447  0.69912665  0.00582754     0.14800
C817        C  0.62341393  0.57852609  0.19367373    -0.11600
C818        C  0.60690603  0.60314943  0.17559257    -0.13200
C819        C  0.60496946  0.90312688  0.32211181    -0.11600
C820        C  0.61890161  0.92684813  0.29951694    -0.13200
C821        C  0.38557285  0.60156471  0.33340339    -0.11600
C822        C  0.36817444  0.57776251  0.31321706    -0.13200
C823        C  0.36752771  0.92803411  0.19251071    -0.11600
C824        C  0.38371374  0.90356859  0.17310953    -0.13200
C825        C  0.78440406  0.95588485  0.82090800    -0.11600
C826        C  0.81574060  0.94537048  0.83946122    -0.13200
C827        C  0.80681561  0.55854676  0.64579948    -0.11600
C828        C  0.77533027  0.54730492  0.66204856    -0.13200
C829        C  0.16046488  0.55247662  0.84008460    -0.11600
C830        C  0.19161684  0.54104668  0.82311519    -0.13200
C831        C  0.19658056  0.95164805  0.66399716    -0.11600
C832        C  0.16468045  0.94158341  0.64631251    -0.13200
C833        C  0.31266870  0.69065678  0.65069991    -0.11600
C834        C  0.28058013  0.70145493  0.66656839    -0.13200
C835        C  0.27855152  0.79574853  0.82281770    -0.11600
C836        C  0.30949584  0.80730028  0.84153025    -0.13200
C837        C  0.11439157  0.67384960  0.80575400    -0.11600
C838        C  0.09915921  0.64965042  0.82636175    -0.13200
C839        C  0.11539378  0.82296884  0.68036094    -0.11600
C840        C  0.10017264  0.84762046  0.66047863    -0.13200
C841        C  0.66480419  0.69039400  0.85514234    -0.11600
C842        C  0.69526915  0.70273393  0.83787264    -0.13200
C843        C  0.69097619  0.79882172  0.68051818    -0.11600
C844        C  0.65923204  0.80923929  0.66275830    -0.13200
C845        C  0.86056377  0.82618169  0.80700484    -0.11600
C846        C  0.87785247  0.85070102  0.82475137    -0.13200
C847        C  0.87118487  0.64983875  0.68426279    -0.11600
C848        C  0.85534600  0.67364568  0.70531777    -0.13200
C849        C  0.91334784  0.89704005  0.01519877    -0.14800
C850        C  0.91283784  0.92224709  0.98104179    -0.30000
H851        H  0.91463110  0.87092607  0.00257244     0.14200
H852        H  0.91226554  0.94811911  0.99554399     0.14800
C853        C  0.81572268  0.93950044  0.14638388    -0.11600
C854        C  0.78397609  0.95097417  0.16223694    -0.13200
C855        C  0.92437140  0.58457274  0.48156512    -0.14800
C856        C  0.89942025  0.60110309  0.51380893    -0.30000
H857        H  0.94845728  0.56817076  0.49573247     0.14200
H858        H  0.87565588  0.61709263  0.49733067     0.14800
C859        C  0.79069218  0.54467426  0.32772667    -0.11600
C860        C  0.82245609  0.55499585  0.34572467    -0.13200
C861        C  0.06679117  0.57699616  0.98115904    -0.14800
C862        C  0.06808690  0.60153218  0.01699304    -0.30000
H863        H  0.06679227  0.55089668  0.99391527     0.14200
H864        H  0.06743532  0.62784383  0.00595642     0.14800
C865        C  0.20056416  0.54694223  0.16451235    -0.11600
C866        C  0.16894400  0.55746671  0.14617605    -0.13200
C867        C  0.07124450  0.89526571  0.46906589    -0.14800
C868        C  0.06778212  0.91975165  0.50459002    -0.30000
H869        H  0.07268632  0.86901694  0.48031011     0.14200
H870        H  0.06662386  0.94580866  0.49171541     0.14800
C871        C  0.20200042  0.95669951  0.33141553    -0.11600
C872        C  0.17078844  0.94442612  0.34695394    -0.13200
C873        C  0.32188551  0.69252445  0.34673080    -0.11600
C874        C  0.29022409  0.70135150  0.32747522    -0.13200
C875        C  0.29317714  0.79390621  0.16949284    -0.11600
C876        C  0.32400543  0.80603786  0.15297768    -0.13200
C877        C  0.10604833  0.64647132  0.18733156    -0.11600
C878        C  0.12446751  0.67005403  0.20570883    -0.13200
C879        C  0.11222742  0.85104826  0.30045873    -0.11600
C880        C  0.12881247  0.82668361  0.28224176    -0.13200
C881        C  0.67354172  0.81058928  0.35378213    -0.11600
C882        C  0.70444809  0.79844694  0.33692940    -0.13200
C883        C  0.70289230  0.70580962  0.17744829    -0.11600
C884        C  0.67104878  0.69599459  0.15915228    -0.13200
C885        C  0.88563738  0.64834918  0.32466484    -0.11600
C886        C  0.86861684  0.67295947  0.30761223    -0.13200
C887        C  0.86905122  0.82538708  0.20707204    -0.11600
C888        C  0.88381976  0.84916633  0.18554239    -0.13200
loop_ 
_geom_bond_atom_site_label_1 
_geom_bond_atom_site_label_2 
_geom_bond_distance 
_geom_bond_site_symmetry_2 
_ccdc_geom_bond_type 
In1           O3   2.247       .  S
In1           O4   2.255       .  S
In1          O12   2.252       .  S
In1           O6   2.247       .  S
In1           O8   2.242       .  S
In1           O9   2.259       .  S
In1          O10   2.235       .  S
In1          O13   2.234       .  S
C2            O8   1.261       .  A
C2           O10   1.259       .  A
C2          C439   1.430       .  S
O3           C11   1.259       .  A
O4           C11   1.261       .  A
C5           O12   1.259       .  A
C5            O6   1.259       .  A
C5          C443   1.437       .  S
C7            O9   1.262       .  A
C7           O13   1.257       .  A
C7          C438   1.434       .  S
C11         C442   1.439       .  S
In14         O16   2.237       .  S
In14         O17   2.224       .  S
In14         O25   2.240       .  S
In14         O19   2.232       .  S
In14         O21   2.245       .  S
In14         O22   2.237       .  S
In14         O23   2.218       .  S
In14         O26   2.224       .  S
C15          O21   1.264       .  A
C15          O23   1.258       .  A
C15         C431   1.428       .  S
O16          C24   1.260       .  A
O17          C24   1.261       .  A
C18          O25   1.260       .  A
C18          O19   1.262       .  A
C18         C434   1.431       .  S
C20          O22   1.262       .  A
C20          O26   1.259       .  A
C20         C430   1.426       .  S
C24         C436   1.427       .  S
C27          C28   1.529       .  S
C27          C33   1.539       .  S
C27          C31   1.542       .  S
C27         C423   1.512       .  S
C28          H35   1.087       .  S
C28          C29   1.358       .  D
C29          C30   1.535       .  S
C29         C435   1.433       .  S
C30          C34   1.541       .  S
C30          C32   1.535       .  S
C30          H36   1.111       .  S
C31          H37   1.087       .  S
C31          C32   1.361       .  D
C32         C428   1.445       .  S
C33          H38   1.086       .  S
C33          C34   1.373       .  D
C34          C79   1.479       .  S
C39          C40   1.531       .  S
C39          C45   1.544       .  S
C39          C43   1.545       .  S
C39         C418   1.521       .  S
C40          H47   1.087       .  S
C40          C41   1.358       .  D
C41          C42   1.536       .  S
C41         C433   1.437       .  S
C42          C46   1.544       .  S
C42          C44   1.533       .  S
C42          H48   1.111       .  S
C43          H49   1.086       .  S
C43          C44   1.364       .  D
C44         C422   1.447       .  S
C45          H50   1.086       .  S
C45          C46   1.376       .  D
C46          C85   1.488       .  S
C51          C52   1.544       .  S
C51          C57   1.533       .  S
C51          C55   1.537       .  S
C51         C411   1.516       .  S
C52          H59   1.083       .  S
C52          C53   1.364       .  D
C53          C54   1.540       .  S
C53         C441   1.445       .  S
C54          C58   1.545       .  S
C54          C56   1.533       .  S
C54          H60   1.111       .  S
C55          H61   1.087       .  S
C55          C56   1.358       .  D
C56         C416   1.439       .  S
C57          H62   1.087       .  S
C57          C58   1.369       .  D
C58          C76   1.483       .  S
C63          C64   1.535       .  S
C63          C69   1.540       .  S
C63          C67   1.542       .  S
C63         C405   1.517       .  S
C64          H71   1.087       .  S
C64          C65   1.361       .  D
C65          C66   1.540       .  S
C65         C444   1.444       .  S
C66          C70   1.544       .  S
C66          C68   1.534       .  S
C66          H72   1.111       .  S
C67          H73   1.087       .  S
C67          C68   1.361       .  D
C68         C409   1.444       .  S
C69          H74   1.086       .  S
C69          C70   1.373       .  D
C70          C81   1.485       .  S
In75         O77   2.271   1_665  S
In75         O78   2.272   1_665  S
In75         O82   2.251   1_565  S
In75         O84   2.280   1_565  S
In75        O530   2.277   1_655  S
In75        O524   2.266       .  S
In75        O527   2.260       .  S
In75        O531   2.262       .  S
C76          O82   1.258       .  A
C76          O84   1.261       .  A
O77          C85   1.262       .  A
O78          C85   1.259       .  A
C79          O86   1.262       .  A
C79          O80   1.259   1_455  A
O80        In519   2.255       .  S
C81          O83   1.259       .  A
C81          O87   1.261       .  A
O83        In519   2.262       .  S
O86        In519   2.260   1_455  S
O87        In519   2.274       .  S
In88         O90   2.233       .  S
In88         O91   2.253       .  S
In88         O99   2.257       .  S
In88         O93   2.251       .  S
In88         O95   2.257       .  S
In88         O96   2.252       .  S
In88         O97   2.235       .  S
In88        O100   2.260       .  S
C89          O95   1.262       .  A
C89          O97   1.258       .  A
C89         C399   1.434       .  S
O90          C98   1.258       .  A
O91          C98   1.261       .  A
C92          O99   1.259       .  A
C92          O93   1.261       .  A
C92         C404   1.440       .  S
C94          O96   1.260       .  A
C94         O100   1.260       .  A
C94         C401   1.442       .  S
C98         C398   1.432       .  S
In101       O103   2.251       .  S
In101       O104   2.258       .  S
In101       O112   2.266       .  S
In101       O106   2.268       .  S
In101       O108   2.269       .  S
In101       O109   2.267       .  S
In101       O110   2.244       .  S
In101       O113   2.270       .  S
C102        O108   1.260       .  A
C102        O110   1.256       .  A
C102        C390   1.439       .  S
O103        C111   1.258       .  A
O104        C111   1.260       .  A
C105        O112   1.260       .  A
C105        O106   1.261       .  A
C105        C395   1.450       .  S
C107        O109   1.260       .  A
C107        O113   1.261       .  A
C107        C393   1.452       .  S
C111        C391   1.438       .  S
C114        C115   1.532       .  S
C114        C120   1.549       .  S
C114        C118   1.533       .  S
C114        C424   1.515       .  S
C115        H122   1.086       .  S
C115        C116   1.367       .  D
C116        C117   1.548       .  S
C116        C163   1.485       .  S
C117        C121   1.544       .  S
C117        C119   1.533       .  S
C117        H123   1.111       .  S
C118        H124   1.087       .  S
C118        C119   1.355       .  D
C119        C388   1.436       .  S
C120        H125   1.083       .  S
C120        C121   1.369       .  D
C121        C396   1.456       .  S
C126        C127   1.531       .  S
C126        C132   1.552       .  S
C126        C130   1.534       .  S
C126        C417   1.523       .  S
C127        H134   1.087       .  S
C127        C128   1.367       .  D
C128        C129   1.545       .  S
C128        C172   1.482       .  S
C129        C133   1.543       .  S
C129        C131   1.530       .  S
C129        H135   1.112       .  S
C130        H136   1.087       .  S
C130        C131   1.356       .  D
C131        C385   1.433       .  S
C132        H137   1.083       .  S
C132        C133   1.372       .  D
C133        C394   1.458       .  S
C138        C139   1.534       .  S
C138        C144   1.534       .  S
C138        C142   1.541       .  S
C138        C412   1.510       .  S
C139        H146   1.086       .  S
C139        C140   1.369       .  D
C140        C141   1.547       .  S
C140        C166   1.482       .  S
C141        C145   1.541       .  S
C141        C143   1.533       .  S
C141        H147   1.111       .  S
C142        H148   1.087       .  S
C142        C143   1.359       .  D
C143        C383   1.441       .  S
C144        H149   1.087       .  S
C144        C145   1.363       .  D
C145        C403   1.446       .  S
C150        C151   1.535       .  S
C150        C156   1.547       .  S
C150        C154   1.537       .  S
C150        C406   1.522       .  S
C151        H158   1.086       .  S
C151        C152   1.370       .  D
C152        C153   1.544       .  S
C152        C168   1.483       .  S
C153        C157   1.539       .  S
C153        C155   1.532       .  S
C153        H159   1.112       .  S
C154        H160   1.087       .  S
C154        C155   1.358       .  D
C155        C382   1.437       .  S
C156        H161   1.083       .  S
C156        C157   1.367       .  D
C157        C402   1.449       .  S
In162       O169   2.256       .  S
In162       O170   2.249       .  S
In162       O171   2.283   1_655  S
In162       O174   2.277       .  S
In162       O608   2.279   1_655  S
In162       O609   2.251       .  S
In162       O617   2.269       .  S
In162       O611   2.264       .  S
C163        O169   1.259   1_455  A
C163        O171   1.260       .  A
O164       In606   2.282   1_445  S
O164        C172   1.261       .  A
O165       In606   2.241   1_545  S
O165        C172   1.258   1_655  A
C166        O173   1.261       .  A
C166        O167   1.259       .  A
O167       In606   2.253   1_545  S
C168        O170   1.259       .  A
C168        O174   1.262       .  A
O173       In606   2.271   1_545  S
In175       O182   2.262       .  S
In175       O183   2.266       .  S
In175       O184   2.255       .  S
In175       O187   2.265       .  S
In175       O621   2.241   1_545  S
In175       O622   2.265   1_545  S
In175       O630   2.263   1_545  S
In175       O624   2.264   1_545  S
C176        O182   1.259       .  A
C176        O184   1.258       .  A
C176        C421   1.441       .  S
O177       In619   2.241       .  S
O177        C185   1.258       .  A
O178       In619   2.264       .  S
O178        C185   1.261       .  A
C179        O186   1.260       .  A
C179        O180   1.262       .  A
C179        C379   1.447       .  S
O180       In619   2.267       .  S
C181        O183   1.261       .  A
C181        O187   1.261       .  A
C181        C378   1.449       .  S
C185        C427   1.438       .  S
O186       In619   2.260       .  S
In188       O190   2.241       .  S
In188       O191   2.262       .  S
In188       O199   2.257       .  S
In188       O193   2.249       .  S
In188       O639   2.251       .  S
In188       O640   2.258       .  S
In188       O641   2.237       .  S
In188       O644   2.261       .  S
C189        O195   1.261       .  A
C189        O197   1.258       .  A
C189        C415   1.431       .  S
O190        C198   1.257       .  A
O191        C198   1.261       .  A
C192        O199   1.259       .  A
C192        O193   1.259       .  A
C192        C376   1.439       .  S
C194        O196   1.262       .  A
C194        O200   1.258       .  A
C194        C373   1.442       .  S
O195       In632   2.247   1_545  S
O196       In632   2.259   1_545  S
O197       In632   2.232   1_545  S
C198        C410   1.437       .  S
O200       In632   2.251   1_545  S
C201        C202   1.533       .  S
C201        C207   1.544       .  S
C201        C205   1.538       .  S
C201        C370   1.518       .  S
C202        H209   1.086       .  S
C202        C203   1.368       .  D
C203        C204   1.544       .  S
C203        C250   1.481       .  S
C204        C208   1.540       .  S
C204        C206   1.530       .  S
C204        H210   1.112       .  S
C205        H211   1.087       .  S
C205        C206   1.358       .  D
C206        C440   1.437       .  S
C207        H212   1.083       .  S
C207        C208   1.366       .  D
C208        C374   1.447       .  S
C213        C214   1.533       .  S
C213        C219   1.540       .  S
C213        C217   1.537       .  S
C213        C366   1.516       .  S
C214        H221   1.086       .  S
C214        C215   1.370       .  D
C215        C216   1.547       .  S
C215        C253   1.482       .  S
C216        C220   1.545       .  S
C216        C218   1.532       .  S
C216        H222   1.111       .  S
C217        H223   1.087       .  S
C217        C218   1.356       .  D
C218        C432   1.435       .  S
C219        H224   1.086       .  S
C219        C220   1.367       .  D
C220        C380   1.453       .  S
C225        C226   1.530       .  S
C225        C231   1.549       .  S
C225        C229   1.535       .  S
C225        C361   1.516       .  S
C226        H233   1.087       .  S
C226        C227   1.366       .  D
C227        C228   1.546       .  S
C227        C255   1.481       .  S
C228        C232   1.542       .  S
C228        C230   1.529       .  S
C228        H234   1.111       .  S
C229        H235   1.087       .  S
C229        C230   1.356       .  D
C230        C429   1.432       .  S
C231        H236   1.083       .  S
C231        C232   1.369       .  D
C232        C377   1.455       .  S
C237        C238   1.543       .  S
C237        C243   1.534       .  S
C237        C241   1.538       .  S
C237        C357   1.512       .  S
C238        H245   1.084       .  S
C238        C239   1.372       .  D
C239        C240   1.542       .  S
C239        C259   1.479       .  S
C240        C244   1.539       .  S
C240        C242   1.531       .  S
C240        H246   1.112       .  S
C241        H247   1.087       .  S
C241        C242   1.358       .  D
C242        C437   1.441       .  S
C243        H248   1.087       .  S
C243        C244   1.363       .  D
C244        C375   1.445       .  S
In249       O251   2.257       .  S
In249       O252   2.256       .  S
In249       O260   2.280       .  S
In249       O254   2.242       .  S
In249       O256   2.242       .  S
In249       O257   2.250       .  S
In249       O258   2.275       .  S
In249       O261   2.274       .  S
C250        O256   1.259       .  A
C250        O258   1.262       .  A
O251        C259   1.262       .  A
O252        C259   1.260       .  A
C253        O260   1.263       .  A
C253        O254   1.259       .  A
C255        O257   1.259       .  A
C255        O261   1.261       .  A
In262       O264   2.246       .  S
In262       O265   2.230       .  S
In262       O269   2.245       .  S
In262       O271   2.225       .  S
In262       O717   2.239       .  S
In262       O711   2.231       .  S
In262       O714   2.247       .  S
In262       O718   2.225       .  S
C263        O269   1.262       .  A
C263        O271   1.258       .  A
C263        C387   1.428       .  S
O264        C272   1.260       .  A
O265        C272   1.261       .  A
C266        O273   1.259       .  A
C266        O267   1.262       .  A
C266        C355   1.426       .  S
O267       In706   2.229   1_545  S
C268        O270   1.263       .  A
C268        O274   1.258       .  A
C268        C386   1.426       .  S
O270       In706   2.237   1_545  S
C272        C354   1.431       .  S
O273       In706   2.233   1_545  S
O274       In706   2.223   1_545  S
In275       O277   2.259       .  S
In275       O278   2.236       .  S
In275       O282   2.258       .  S
In275       O284   2.233       .  S
In275       O730   2.253   1_545  S
In275       O724   2.250   1_545  S
In275       O727   2.249   1_545  S
In275       O731   2.236   1_545  S
C276        O282   1.262       .  A
C276        O284   1.258       .  A
C276        C384   1.434       .  S
O277        C285   1.261       .  A
O278        C285   1.259       .  A
C279        O286   1.259       .  A
C279        O280   1.261       .  A
C279        C351   1.436       .  S
O280       In719   2.244       .  S
C281        O283   1.262       .  A
C281        O287   1.258       .  A
C281        C381   1.430       .  S
O283       In719   2.246       .  S
C285        C349   1.437       .  S
O286       In719   2.250       .  S
O287       In719   2.229       .  S
C288        C289   1.531       .  S
C288        C294   1.546       .  S
C288        C292   1.541       .  S
C288        C365   1.512       .  S
C289        H296   1.087       .  S
C289        C290   1.361       .  D
C290        C291   1.535       .  S
C290        C353   1.437       .  S
C291        C295   1.541       .  S
C291        C293   1.531       .  S
C291        H297   1.112       .  S
C292        H298   1.087       .  S
C292        C293   1.359       .  D
C293        C392   1.444       .  S
C294        H299   1.084       .  S
C294        C295   1.373       .  D
C295        C337   1.479       .  S
C300        C301   1.529       .  S
C300        C306   1.539       .  S
C300        C304   1.542       .  S
C300        C362   1.512       .  S
C301        H308   1.087       .  S
C301        C302   1.358       .  D
C302        C303   1.535       .  S
C302        C356   1.432       .  S
C303        C307   1.542       .  S
C303        C305   1.536       .  S
C303        H309   1.111       .  S
C304        H310   1.087       .  S
C304        C305   1.361       .  D
C305        C389   1.446       .  S
C306        H311   1.086       .  S
C306        C307   1.373       .  D
C307        C342   1.480       .  S
C312        C313   1.536       .  S
C312        C318   1.536       .  S
C312        C316   1.541       .  S
C312        C358   1.516       .  S
C313        H320   1.087       .  S
C313        C314   1.363       .  D
C314        C315   1.539       .  S
C314        C352   1.442       .  S
C315        C319   1.542       .  S
C315        C317   1.531       .  S
C315        H321   1.112       .  S
C316        H322   1.087       .  S
C316        C317   1.358       .  D
C317        C400   1.440       .  S
C318        H323   1.086       .  S
C318        C319   1.372       .  D
C319        C346   1.477       .  S
C324        C325   1.537       .  S
C324        C330   1.540       .  S
C324        C328   1.540       .  S
C324        C369   1.515       .  S
C325        H332   1.087       .  S
C325        C326   1.364       .  D
C326        C327   1.538       .  S
C326        C350   1.443       .  S
C327        C331   1.543       .  S
C327        C329   1.532       .  S
C327        H333   1.112       .  S
C328        H334   1.087       .  S
C328        C329   1.358       .  D
C329        C397   1.439       .  S
C330        H335   1.086       .  S
C330        C331   1.371       .  D
C331        C340   1.483       .  S
In336       O338   2.266       .  S
In336       O339   2.246       .  S
In336       O347   2.266       .  S
In336       O341   2.264       .  S
In336       O343   2.269       .  S
In336       O344   2.251       .  S
In336       O345   2.254       .  S
In336       O348   2.266       .  S
C337        O343   1.259       .  A
C337        O345   1.259       .  A
O338        C346   1.262       .  A
O339        C346   1.257       .  A
C340        O347   1.261       .  A
C340        O341   1.260       .  A
C342        O344   1.259       .  A
C342        O348   1.262       .  A
C349        C350   1.207       .  T
C351        C352   1.206       .  T
C353        C354   1.203       .  T
C355        C356   1.200       .  T
C357        H359   1.088       .  S
C357        C358   1.347       .  D
C358        H360   1.083       .  S
C361        H363   1.088       .  S
C361        C362   1.340       .  D
C362        H364   1.082       .  S
C365        H367   1.088   1_556  S
C365        C366   1.345   1_556  D
C366        H368   1.084       .  S
C369        H371   1.082       .  S
C369        C370   1.346   1_556  D
C370        H372   1.088       .  S
C373        C374   1.209       .  T
C375        C376   1.208       .  T
C377        C378   1.214       .  T
C379        C380   1.213       .  T
C381        C382   1.203       .  T
C383        C384   1.205       .  T
C385        C386   1.200       .  T
C387        C388   1.202       .  T
C389        C390   1.208       .  T
C391        C392   1.207       .  T
C393        C394   1.216       .  T
C395        C396   1.214       .  T
C397        C398   1.204       .  T
C399        C400   1.205       .  T
C401        C402   1.210       .  T
C403        C404   1.208       .  T
C405        H407   1.082   1_554  S
C405        C406   1.346   1_554  D
C406        H408   1.088       .  S
C409        C410   1.207       .  T
C411        H413   1.088       .  S
C411        C412   1.345       .  D
C412        H414   1.082       .  S
C415        C416   1.204       .  T
C417        H419   1.088       .  S
C417        C418   1.341   1_556  D
C418        H420   1.082       .  S
C421        C422   1.209       .  T
C423        H425   1.082       .  S
C423        C424   1.341       .  D
C424        H426   1.088       .  S
C427        C428   1.208       .  T
C429        C430   1.200       .  T
C431        C432   1.202       .  T
C433        C434   1.203       .  T
C435        C436   1.201       .  T
C437        C438   1.205       .  T
C439        C440   1.203       .  T
C441        C442   1.208       .  T
C443        C444   1.207       .  T
In445       O447   2.249       .  S
In445       O448   2.250       .  S
In445       O456   2.253       .  S
In445       O450   2.239       .  S
In445       O452   2.243       .  S
In445       O453   2.259       .  S
In445       O454   2.232       .  S
In445       O457   2.232       .  S
C446        O452   1.261       .  A
C446        O454   1.259       .  A
C446        C883   1.429       .  S
O447        C455   1.259       .  A
O448        C455   1.261       .  A
C449        O456   1.259       .  A
C449        O450   1.259       .  A
C449        C887   1.434       .  S
C451        O453   1.263       .  A
C451        O457   1.257       .  A
C451        C882   1.434       .  S
C455        C886   1.438       .  S
In458       O460   2.244       .  S
In458       O461   2.227       .  S
In458       O469   2.243       .  S
In458       O463   2.231       .  S
In458       O465   2.251       .  S
In458       O466   2.231       .  S
In458       O467   2.225       .  S
In458       O470   2.220       .  S
C459        O465   1.263       .  A
C459        O467   1.257       .  A
C459        C875   1.431       .  S
O460        C468   1.260       .  A
O461        C468   1.260       .  A
C462        O469   1.259       .  A
C462        O463   1.261       .  A
C462        C878   1.431       .  S
C464        O466   1.262       .  A
C464        O470   1.259       .  A
C464        C874   1.422       .  S
C468        C880   1.430       .  S
C471        C472   1.530       .  S
C471        C477   1.542       .  S
C471        C475   1.542       .  S
C471        C867   1.516       .  S
C472        H479   1.087       .  S
C472        C473   1.359       .  D
C473        C474   1.538       .  S
C473        C879   1.436       .  S
C474        C478   1.543       .  S
C474        C476   1.534       .  S
C474        H480   1.111       .  S
C475        H481   1.087       .  S
C475        C476   1.361       .  D
C476        C872   1.443       .  S
C477        H482   1.086       .  S
C477        C478   1.375       .  D
C478        C523   1.486       .  S
C483        C484   1.532       .  S
C483        C489   1.540       .  S
C483        C487   1.545       .  S
C483        C862   1.518       .  S
C484        H491   1.087       .  S
C484        C485   1.360       .  D
C485        C486   1.536       .  S
C485        C877   1.436       .  S
C486        C490   1.543       .  S
C486        C488   1.533       .  S
C486        H492   1.112       .  S
C487        H493   1.086       .  S
C487        C488   1.363       .  D
C488        C866   1.447       .  S
C489        H494   1.086       .  S
C489        C490   1.372       .  D
C490        C529   1.482       .  S
C495        C496   1.536       .  S
C495        C501   1.536       .  S
C495        C499   1.540       .  S
C495        C855   1.515       .  S
C496        H503   1.086       .  S
C496        C497   1.364       .  D
C497        C498   1.540       .  S
C497        C885   1.444       .  S
C498        C502   1.544       .  S
C498        C500   1.532       .  S
C498        H504   1.111       .  S
C499        H505   1.087       .  S
C499        C500   1.358       .  D
C500        C860   1.439       .  S
C501        H506   1.086       .  S
C501        C502   1.371       .  D
C502        C520   1.482       .  S
C507        C508   1.535       .  S
C507        C513   1.539       .  S
C507        C511   1.542       .  S
C507        C849   1.516       .  S
C508        H515   1.087       .  S
C508        C509   1.362       .  D
C509        C510   1.538       .  S
C509        C888   1.441       .  S
C510        C514   1.544       .  S
C510        C512   1.536       .  S
C510        H516   1.111       .  S
C511        H517   1.087       .  S
C511        C512   1.361       .  D
C512        C853   1.447       .  S
C513        H518   1.086       .  S
C513        C514   1.372       .  D
C514        C525   1.481       .  S
In519       O521   2.264   1_655  S
In519       O522   2.263       .  S
In519       O526   2.250       .  S
In519       O528   2.277       .  S
C520        O526   1.258       .  A
C520        O528   1.262       .  A
O521        C529   1.260       .  A
O522        C529   1.259   1_655  A
C523        O530   1.262       .  A
C523        O524   1.258   1_455  A
C525        O527   1.260       .  A
C525        O531   1.260       .  A
In532       O534   2.229       .  S
In532       O535   2.255       .  S
In532       O543   2.254       .  S
In532       O537   2.242       .  S
In532       O539   2.252       .  S
In532       O540   2.244       .  S
In532       O541   2.242       .  S
In532       O544   2.256       .  S
C533        O539   1.261       .  A
C533        O541   1.258       .  A
C533        C843   1.435       .  S
O534        C542   1.257       .  A
O535        C542   1.262       .  A
C536        O543   1.259       .  A
C536        O537   1.260       .  A
C536        C848   1.436       .  S
C538        O540   1.260       .  A
C538        O544   1.260       .  A
C538        C845   1.439       .  S
C542        C842   1.432       .  S
In545       O547   2.241       .  S
In545       O548   2.257       .  S
In545       O556   2.263       .  S
In545       O550   2.267       .  S
In545       O552   2.266       .  S
In545       O553   2.267       .  S
In545       O554   2.244       .  S
In545       O557   2.267       .  S
C546        O552   1.263       .  A
C546        O554   1.258       .  A
C546        C834   1.441       .  S
O547        C555   1.258       .  A
O548        C555   1.261       .  A
C549        O556   1.259       .  A
C549        O550   1.261       .  A
C549        C839   1.448       .  S
C551        O553   1.259       .  A
C551        O557   1.260       .  A
C551        C837   1.448       .  S
C555        C835   1.435       .  S
C558        C559   1.532       .  S
C558        C564   1.549       .  S
C558        C562   1.534       .  S
C558        C868   1.518       .  S
C559        H566   1.086       .  S
C559        C560   1.367       .  D
C560        C561   1.546       .  S
C560        C607   1.482       .  S
C561        C565   1.542       .  S
C561        C563   1.532       .  S
C561        H567   1.111       .  S
C562        H568   1.088       .  S
C562        C563   1.355       .  D
C563        C832   1.435       .  S
C564        H569   1.084       .  S
C564        C565   1.370       .  D
C565        C840   1.454       .  S
C570        C571   1.536       .  S
C570        C576   1.549       .  S
C570        C574   1.534       .  S
C570        C861   1.521       .  S
C571        H578   1.086       .  S
C571        C572   1.370       .  D
C572        C573   1.543       .  S
C572        C616   1.484       .  S
C573        C577   1.541       .  S
C573        C575   1.532       .  S
C573        H579   1.111       .  S
C574        H580   1.087       .  S
C574        C575   1.355       .  D
C575        C829   1.436       .  S
C576        H581   1.084       .  S
C576        C577   1.370       .  D
C577        C838   1.454       .  S
C582        C583   1.544       .  S
C582        C588   1.533       .  S
C582        C586   1.538       .  S
C582        C856   1.512       .  S
C583        H590   1.084       .  S
C583        C584   1.372       .  D
C584        C585   1.544       .  S
C584        C610   1.483       .  S
C585        C589   1.538       .  S
C585        C587   1.533       .  S
C585        H591   1.111       .  S
C586        H592   1.087       .  S
C586        C587   1.357       .  D
C587        C827   1.441       .  S
C588        H593   1.087       .  S
C588        C589   1.363       .  D
C589        C847   1.442       .  S
C594        C595   1.536       .  S
C594        C600   1.546       .  S
C594        C598   1.537       .  S
C594        C850   1.521       .  S
C595        H602   1.086       .  S
C595        C596   1.370       .  D
C596        C597   1.542       .  S
C596        C612   1.482       .  S
C597        C601   1.539       .  S
C597        C599   1.531       .  S
C597        H603   1.112       .  S
C598        H604   1.087       .  S
C598        C599   1.357       .  D
C599        C826   1.438       .  S
C600        H605   1.083       .  S
C600        C601   1.367       .  D
C601        C846   1.446       .  S
In606       O613   2.249       .  S
In606       O614   2.249       .  S
In606       O615   2.278   1_655  S
In606       O618   2.272       .  S
C607        O613   1.260   1_455  A
C607        O615   1.261       .  A
O608        C616   1.262       .  A
O609        C616   1.258   1_655  A
C610        O617   1.260       .  A
C610        O611   1.259       .  A
C612        O614   1.260       .  A
C612        O618   1.263       .  A
In619       O626   2.265       .  S
In619       O627   2.265       .  S
In619       O628   2.248       .  S
In619       O631   2.264       .  S
C620        O626   1.261       .  A
C620        O628   1.258       .  A
C620        C865   1.441       .  S
O621        C629   1.256       .  A
O622        C629   1.260       .  A
C623        O630   1.260       .  A
C623        O624   1.261       .  A
C623        C823   1.447       .  S
C625        O627   1.260       .  A
C625        O631   1.260       .  A
C625        C822   1.447       .  S
C629        C871   1.437       .  S
In632       O634   2.243       .  S
In632       O635   2.266       .  S
In632       O643   2.256       .  S
In632       O637   2.239       .  S
C633        O639   1.260       .  A
C633        O641   1.258       .  A
C633        C859   1.432       .  S
O634        C642   1.257       .  A
O635        C642   1.262       .  A
C636        O643   1.261       .  A
C636        O637   1.259       .  A
C636        C820   1.436       .  S
C638        O640   1.260       .  A
C638        O644   1.259       .  A
C638        C817   1.443       .  S
C642        C854   1.440       .  S
C645        C646   1.531       .  S
C645        C651   1.546       .  S
C645        C649   1.537       .  S
C645        C814   1.516       .  S
C646        H653   1.087       .  S
C646        C647   1.367       .  D
C647        C648   1.545       .  S
C647        C694   1.480       .  S
C648        C652   1.541       .  S
C648        C650   1.531       .  S
C648        H654   1.111       .  S
C649        H655   1.087       .  S
C649        C650   1.358       .  D
C650        C884   1.437       .  S
C651        H656   1.083       .  S
C651        C652   1.368       .  D
C652        C818   1.450       .  S
C657        C658   1.534       .  S
C657        C663   1.540       .  S
C657        C661   1.539       .  S
C657        C810   1.518       .  S
C658        H665   1.086       .  S
C658        C659   1.369       .  D
C659        C660   1.546       .  S
C659        C697   1.484       .  S
C660        C664   1.544       .  S
C660        C662   1.533       .  S
C660        H666   1.111       .  S
C661        H667   1.087       .  S
C661        C662   1.358       .  D
C662        C876   1.438       .  S
C663        H668   1.086       .  S
C663        C664   1.368       .  D
C664        C824   1.453       .  S
C669        C670   1.531       .  S
C669        C675   1.550       .  S
C669        C673   1.534       .  S
C669        C805   1.518       .  S
C670        H677   1.086       .  S
C670        C671   1.367       .  D
C671        C672   1.545       .  S
C671        C699   1.481       .  S
C672        C676   1.540       .  S
C672        C674   1.528       .  S
C672        H678   1.112       .  S
C673        H679   1.087       .  S
C673        C674   1.355       .  D
C674        C873   1.430       .  S
C675        H680   1.083       .  S
C675        C676   1.370       .  D
C676        C821   1.453       .  S
C681        C682   1.548       .  S
C681        C687   1.535       .  S
C681        C685   1.536       .  S
C681        C801   1.514       .  S
C682        H689   1.084       .  S
C682        C683   1.375       .  D
C683        C684   1.541       .  S
C683        C703   1.483       .  S
C684        C688   1.537       .  S
C684        C686   1.533       .  S
C684        H690   1.111       .  S
C685        H691   1.087       .  S
C685        C686   1.356       .  D
C686        C881   1.441       .  S
C687        H692   1.087       .  S
C687        C688   1.363       .  D
C688        C819   1.442       .  S
In693       O695   2.261       .  S
In693       O696   2.265       .  S
In693       O704   2.286       .  S
In693       O698   2.247       .  S
In693       O700   2.243       .  S
In693       O701   2.244       .  S
In693       O702   2.279       .  S
In693       O705   2.277       .  S
C694        O700   1.258       .  A
C694        O702   1.262       .  A
O695        C703   1.262       .  A
O696        C703   1.260       .  A
C697        O704   1.262       .  A
C697        O698   1.258       .  A
C699        O701   1.259       .  A
C699        O705   1.262       .  A
In706       O708   2.241       .  S
In706       O709   2.228       .  S
In706       O713   2.242       .  S
In706       O715   2.218       .  S
C707        O713   1.264       .  A
C707        O715   1.258       .  A
C707        C831   1.427       .  S
O708        C716   1.260       .  A
O709        C716   1.260       .  A
C710        O717   1.259       .  A
C710        O711   1.261       .  A
C710        C799   1.429       .  S
C712        O714   1.263       .  A
C712        O718   1.258       .  A
C712        C830   1.429       .  S
C716        C798   1.429       .  S
In719       O721   2.248       .  S
In719       O722   2.229       .  S
In719       O726   2.254       .  S
In719       O728   2.233       .  S
C720        O726   1.262       .  A
C720        O728   1.258       .  A
C720        C828   1.434       .  S
O721        C729   1.260       .  A
O722        C729   1.260       .  A
C723        O730   1.259       .  A
C723        O724   1.261       .  A
C723        C795   1.439       .  S
C725        O727   1.260       .  A
C725        O731   1.258       .  A
C725        C825   1.431       .  S
C729        C793   1.431       .  S
C732        C733   1.530       .  S
C732        C738   1.548       .  S
C732        C736   1.539       .  S
C732        C809   1.514       .  S
C733        H740   1.087       .  S
C733        C734   1.361       .  D
C734        C735   1.535       .  S
C734        C797   1.435       .  S
C735        C739   1.539       .  S
C735        C737   1.531       .  S
C735        H741   1.112       .  S
C736        H742   1.087       .  S
C736        C737   1.358       .  D
C737        C836   1.442       .  S
C738        H743   1.084       .  S
C738        C739   1.375       .  D
C739        C781   1.479       .  S
C744        C745   1.531       .  S
C744        C750   1.538       .  S
C744        C748   1.544       .  S
C744        C806   1.514       .  S
C745        H752   1.087       .  S
C745        C746   1.359       .  D
C746        C747   1.535       .  S
C746        C800   1.434       .  S
C747        C751   1.543       .  S
C747        C749   1.535       .  S
C747        H753   1.111       .  S
C748        H754   1.087       .  S
C748        C749   1.362       .  D
C749        C833   1.448       .  S
C750        H755   1.086       .  S
C750        C751   1.373       .  D
C751        C786   1.481       .  S
C756        C757   1.537       .  S
C756        C762   1.533       .  S
C756        C760   1.542       .  S
C756        C802   1.517       .  S
C757        H764   1.087       .  S
C757        C758   1.366       .  D
C758        C759   1.541       .  S
C758        C796   1.445       .  S
C759        C763   1.544       .  S
C759        C761   1.531       .  S
C759        H765   1.112       .  S
C760        H766   1.087       .  S
C760        C761   1.360       .  D
C761        C844   1.441       .  S
C762        H767   1.086       .  S
C762        C763   1.369       .  D
C763        C790   1.480       .  S
C768        C769   1.533       .  S
C768        C774   1.541       .  S
C768        C772   1.540       .  S
C768        C813   1.513       .  S
C769        H776   1.087       .  S
C769        C770   1.362       .  D
C770        C771   1.535       .  S
C770        C794   1.437       .  S
C771        C775   1.540       .  S
C771        C773   1.532       .  S
C771        H777   1.112       .  S
C772        H778   1.087       .  S
C772        C773   1.358       .  D
C773        C841   1.439       .  S
C774        H779   1.086       .  S
C774        C775   1.373       .  D
C775        C784   1.479       .  S
In780       O782   2.276       .  S
In780       O783   2.244       .  S
In780       O791   2.262       .  S
In780       O785   2.257       .  S
In780       O787   2.262       .  S
In780       O788   2.254       .  S
In780       O789   2.252       .  S
In780       O792   2.267       .  S
C781        O787   1.259       .  A
C781        O789   1.261       .  A
O782        C790   1.262       .  A
O783        C790   1.258       .  A
C784        O791   1.261       .  A
C784        O785   1.258       .  A
C786        O788   1.259       .  A
C786        O792   1.262       .  A
C793        C794   1.203       .  T
C795        C796   1.208       .  T
C797        C798   1.202       .  T
C799        C800   1.202       .  T
C801        H803   1.088       .  S
C801        C802   1.345       .  D
C802        H804   1.083       .  S
C805        H807   1.088       .  S
C805        C806   1.341       .  D
C806        H808   1.082       .  S
C809        H811   1.088       .  S
C809        C810   1.343   1_556  D
C810        H812   1.084       .  S
C813        H815   1.082       .  S
C813        C814   1.343   1_556  D
C814        H816   1.088       .  S
C817        C818   1.210       .  T
C819        C820   1.206       .  T
C821        C822   1.213       .  T
C823        C824   1.213       .  T
C825        C826   1.203       .  T
C827        C828   1.205       .  T
C829        C830   1.202       .  T
C831        C832   1.201       .  T
C833        C834   1.209       .  T
C835        C836   1.206       .  T
C837        C838   1.213       .  T
C839        C840   1.213       .  T
C841        C842   1.204       .  T
C843        C844   1.205       .  T
C845        C846   1.208       .  T
C847        C848   1.206       .  T
C849        H851   1.082       .  S
C849        C850   1.345   1_554  D
C850        H852   1.088       .  S
C853        C854   1.209       .  T
C855        H857   1.084       .  S
C855        C856   1.346       .  D
C856        H858   1.089       .  S
C859        C860   1.204       .  T
C861        H863   1.088       .  S
C861        C862   1.343   1_556  D
C862        H864   1.083       .  S
C865        C866   1.209       .  T
C867        H869   1.082       .  S
C867        C868   1.341       .  D
C868        H870   1.088       .  S
C871        C872   1.207       .  T
C873        C874   1.198       .  T
C875        C876   1.203       .  T
C877        C878   1.203       .  T
C879        C880   1.203       .  T
C881        C882   1.205       .  T
C883        C884   1.203       .  T
C885        C886   1.207       .  T
C887        C888   1.205       .  T
