geometry optimzed in LAMMPS
_audit_creation_date              2020-11-30 
_audit_creation_method            'lammps2cif' 
_symmetry_space_group_name_H-M    'P1' 
_symmetry_Int_Tables_number       1 
_symmetry_cell_setting            triclinic 
loop_ 
_symmetry_equiv_pos_as_xyz 
  x,y,z 
_cell_length_a                    53.50131724 
_cell_length_b                    53.53285173361412 
_cell_length_c                    31.462470372268946 
_cell_angle_alpha                 89.97546940132503 
_cell_angle_beta                  89.97064080326432 
_cell_angle_gamma                 89.98460029694829 
loop_ 
_atom_site_label 
_atom_site_type_symbol 
_atom_site_fract_x 
_atom_site_fract_y 
_atom_site_fract_z 
_atom_site_charge 
N1          N  0.29487147  0.09067092  0.69360967    -0.27800
N2          N  0.28721459  0.06830448  0.68142308    -0.35600
C3          C  0.26863761  0.06076176  0.70726243     0.00600
C4          C  0.26413878  0.07953827  0.73637770     0.06600
C5          C  0.28092481  0.09827461  0.72672597    -0.06500
H6          H  0.25887187  0.04313437  0.70457594     0.07300
H7          H  0.28339041  0.11576971  0.74339840     0.08500
Cu8        Cu  0.30185307  0.04963027  0.62929185     0.44200
Cu9        Cu  0.32562898  0.10865150  0.66789685     0.42000
Cu10       Cu  0.35986676  0.07456683  0.58779082     0.43900
N11         N  0.32009943  0.03533750  0.57643295    -0.35100
N12         N  0.34208521  0.04347654  0.56308625    -0.29400
C13         C  0.34941185  0.02972803  0.52957308    -0.05500
C14         C  0.33087583  0.01255362  0.52090435     0.06700
C15         C  0.31250738  0.01663484  0.55097191     0.00500
H16         H  0.36654583  0.03259685  0.51197261     0.08200
H17         H  0.29511491  0.00653072  0.55450787     0.07200
N18         N  0.37163880  0.10832149  0.61279812    -0.36600
N19         N  0.35924058  0.12068105  0.64242411    -0.28800
C20         C  0.37197777  0.14150931  0.65241057    -0.04000
C21         C  0.39327384  0.14246634  0.62744131     0.04600
C22         C  0.39239133  0.12114582  0.60260465     0.02700
H23         H  0.36597275  0.15508654  0.67573530     0.07800
H24         H  0.40598711  0.11516460  0.57927335     0.06600
O25         O  0.47739834  0.22759940  0.59145428    -0.73400
O26         O  0.52983718  0.28110166  0.59076701    -0.74400
O27         O  0.53025111  0.22808478  0.59031943    -0.63000
O28         O  0.47702049  0.28068206  0.59180081    -0.68200
O29         O  0.47736462  0.28037327  0.66229417    -0.71000
O30         O  0.53095376  0.22791872  0.66080700    -0.62200
O31         O  0.53047191  0.28077383  0.66124978    -0.74700
O32         O  0.47778693  0.22747433  0.66194536    -0.73500
Cu33       Cu  0.50359672  0.25436280  0.58865490     1.04600
Cu34       Cu  0.50414596  0.25411818  0.66404595     1.04300
C35         C  0.46926752  0.21907704  0.62680148     0.92800
C36         C  0.53850555  0.28937461  0.62588772     0.91900
C37         C  0.53911899  0.21973964  0.62524964     0.84100
C38         C  0.46881574  0.28893248  0.62726125     0.90300
N39         N  0.66846641  0.04654571  0.55577360    -0.27800
N40         N  0.68950634  0.03719845  0.57107364    -0.35600
C41         C  0.69650202  0.01767063  0.54690388     0.00600
C42         C  0.67873105  0.01442021  0.51556271     0.06600
C43         C  0.66117238  0.03288595  0.52215282    -0.06500
H44         H  0.71309786  0.00652028  0.55208036     0.07300
H45         H  0.64469768  0.03657017  0.50323338     0.08500
Cu46       Cu  0.70732731  0.05130547  0.62450459     0.44200
Cu47       Cu  0.65172503  0.07861970  0.57887868     0.42000
Cu48       Cu  0.68512567  0.11160037  0.66139158     0.43900
N49         N  0.72218597  0.07011722  0.67632195    -0.35100
N50         N  0.71520849  0.09284095  0.68782305    -0.29400
C51         C  0.72921681  0.10026112  0.72096751    -0.05500
C52         C  0.74531922  0.08105564  0.73134432     0.06700
C53         C  0.74035339  0.06219323  0.70263054     0.00500
H54         H  0.72719606  0.11794685  0.73723391     0.08200
H55         H  0.74950720  0.04420477  0.70058353     0.07200
N56         N  0.65185508  0.12404700  0.63521587    -0.36600
N57         N  0.63979110  0.11207520  0.60477568    -0.28800
C58         C  0.61887248  0.12474435  0.59506610    -0.04000
C59         C  0.61752434  0.14558221  0.62101597     0.04600
C60         C  0.63875558  0.14450085  0.64612749     0.02700
H61         H  0.60537599  0.11884149  0.57155326     0.07800
H62         H  0.64435852  0.15760747  0.67046660     0.06600
N63         N  0.29519627  0.41852673  0.69359987    -0.27800
N64         N  0.28561057  0.43912646  0.67703869    -0.35600
C65         C  0.26587660  0.44627885  0.70060023     0.00600
C66         C  0.26272915  0.42904632  0.73281319     0.06600
C67         C  0.28147068  0.41165266  0.72742479    -0.06500
H68         H  0.25451512  0.46260622  0.69441123     0.07300
H69         H  0.28529124  0.39559467  0.74727440     0.08500
Cu70       Cu  0.29951849  0.45626578  0.62279278     0.44200
Cu71       Cu  0.32755453  0.40170941  0.67189881     0.42000
Cu72       Cu  0.35996532  0.43409131  0.58767111     0.43900
N73         N  0.31850707  0.47090691  0.57093239    -0.35100
N74         N  0.34136292  0.46394367  0.56011953    -0.29400
C75         C  0.34914305  0.47795681  0.52719428    -0.05500
C76         C  0.33004509  0.49405545  0.51621186     0.06700
C77         C  0.31085335  0.48907495  0.54436682     0.00500
H78         H  0.36707947  0.47605204  0.51163636     0.08200
H79         H  0.29289686  0.49833490  0.54604758     0.07200
N80         N  0.37257846  0.40108966  0.61466030    -0.36600
N81         N  0.36082033  0.38942401  0.64581725    -0.28800
C82         C  0.37352130  0.36861108  0.65598928    -0.04000
C83         C  0.39417391  0.36690648  0.62962773     0.04600
C84         C  0.39293499  0.38782147  0.60375545     0.02700
H85         H  0.36776740  0.35542661  0.68015395     0.07800
H86         H  0.40589489  0.39311661  0.57893136     0.06600
N87         N  0.71306536  0.41777936  0.69329589    -0.27800
N88         N  0.72105399  0.43986402  0.68018374    -0.35600
C89         C  0.74005749  0.44727483  0.70514982     0.00600
C90         C  0.74448828  0.42872378  0.73468274     0.06600
C91         C  0.72721304  0.41023920  0.72622151    -0.06500
H92         H  0.75019518  0.46463664  0.70151390     0.07300
H93         H  0.72466570  0.39291818  0.74340179     0.08500
Cu94       Cu  0.70665489  0.45833243  0.62768653     0.44200
Cu95       Cu  0.68210925  0.39978852  0.66816221     0.42000
Cu96       Cu  0.65030710  0.43186327  0.58275298     0.43900
N97         N  0.68918422  0.47222909  0.57381636    -0.35100
N98         N  0.66787785  0.46331712  0.55885634    -0.29400
C99         C  0.66092203  0.47686460  0.52487752    -0.05500
C100        C  0.67899223  0.49474572  0.51768010     0.06700
C101        C  0.69668964  0.49131645  0.54907070     0.00500
H102        H  0.64429519  0.47351219  0.50617729     0.08200
H103        H  0.71354377  0.50210742  0.55397874     0.07200
N104        N  0.63794694  0.39857132  0.60881451    -0.36600
N105        N  0.64941588  0.38697844  0.64035009    -0.28800
C106        C  0.63633880  0.36643019  0.65078266    -0.04000
C107        C  0.61571713  0.36488505  0.62428587     0.04600
C108        C  0.61743263  0.38555977  0.59795948     0.02700
H109        H  0.64157934  0.35354585  0.67571560     0.07800
H110        H  0.60446173  0.39110607  0.57335015     0.06600
N111        N  0.34215862  0.96390486  0.44298283    -0.27800
N112        N  0.31923567  0.97069344  0.43226924    -0.35600
C113        C  0.31152722  0.98887781  0.45872361     0.00600
C114        C  0.33074844  0.99404304  0.48665966     0.06600
C115        C  0.34992184  0.97804605  0.47571014    -0.06500
H116        H  0.29349365  0.99799192  0.45715634     0.07300
H117        H  0.36788125  0.97626418  0.49119890     0.08500
Cu118      Cu  0.30011564  0.95584330  0.38077701     0.44200
Cu119      Cu  0.36095823  0.93413864  0.41574879     0.42000
Cu120      Cu  0.32864597  0.90179223  0.33152986     0.43900
N121        N  0.28612319  0.93857906  0.32674459    -0.35100
N122        N  0.29595349  0.91815209  0.30999976    -0.29400
C123        C  0.28226113  0.91120388  0.27618708    -0.05500
C124        C  0.26326284  0.92836221  0.27102471     0.06700
C125        C  0.26624713  0.94553280  0.30336504     0.00500
H126        H  0.28629313  0.89528582  0.25614942     0.08200
H127        H  0.25473104  0.96173451  0.30966982     0.07200
N128        N  0.36217565  0.88976332  0.35718883    -0.36600
N129        N  0.37386976  0.90142133  0.38838447    -0.28800
C130        C  0.39434612  0.88829882  0.39913773    -0.04000
C131        C  0.39573810  0.86746941  0.37313781     0.04600
C132        C  0.37505435  0.86908643  0.34683467     0.02700
H133        H  0.40723341  0.89359323  0.42402230     0.07800
H134        H  0.36936111  0.85588477  0.32269766     0.06600
O135        O  0.53135057  0.72750183  0.34134812    -0.73400
O136        O  0.47826087  0.78037037  0.34076395    -0.74400
O137        O  0.53128731  0.78032405  0.34116089    -0.63000
O138        O  0.47813560  0.72749170  0.34099274    -0.71400
O139        O  0.47811413  0.72738152  0.41150495    -0.71000
O140        O  0.53094493  0.78049190  0.41164467    -0.62200
O141        O  0.47807721  0.78059945  0.41125621    -0.74700
O142        O  0.53097745  0.72753950  0.41184409    -0.73500
Cu143      Cu  0.50474371  0.75390234  0.33861017     1.04600
Cu144      Cu  0.50449775  0.75399408  0.41400918     1.04300
C145        C  0.53966397  0.71924007  0.37674251     0.92800
C146        C  0.46988772  0.78899131  0.37586322     0.91900
C147        C  0.53954080  0.78877229  0.37645341     0.84100
C148        C  0.46976002  0.71902859  0.37622024     0.90300
N149        N  0.66759449  0.96372204  0.44153393    -0.27800
N150        N  0.68857864  0.97296993  0.42579470    -0.35600
C151        C  0.69597295  0.99228701  0.45007939     0.00600
C152        C  0.67854086  0.99552043  0.48198258     0.06600
C153        C  0.66073705  0.97727411  0.47557278    -0.06500
H154        H  0.71257899  0.00335474  0.44453319     0.07300
H155        H  0.64437357  0.97368660  0.49483655     0.08500
Cu156      Cu  0.70585204  0.95924909  0.37152602     0.44200
Cu157      Cu  0.65030672  0.93188895  0.41850397     0.42000
Cu158      Cu  0.68210286  0.90020452  0.33277361     0.43900
N159        N  0.72016570  0.94083191  0.31883304    -0.35100
N160        N  0.71246691  0.91850880  0.30648411    -0.29400
C161        C  0.72645726  0.91090854  0.27342327    -0.05500
C162        C  0.74332701  0.92959410  0.26399431     0.06700
C163        C  0.73883888  0.94834091  0.29316580     0.00500
H164        H  0.72412132  0.89334637  0.25689234     0.08200
H165        H  0.74879606  0.96584211  0.29620166     0.07200
N166        N  0.64961610  0.88712017  0.36070865    -0.36600
N167        N  0.63817448  0.89850733  0.39249532    -0.28800
C168        C  0.61786686  0.88522991  0.40357176    -0.04000
C169        C  0.61627742  0.86464007  0.37709463     0.04600
C170        C  0.63670552  0.86648709  0.35025641     0.02700
H171        H  0.60494754  0.89050701  0.42846090     0.07800
H172        H  0.64195183  0.85370915  0.32515807     0.06600
N173        N  0.29496594  0.59130706  0.30907224    -0.27800
N174        N  0.28720341  0.56896803  0.32127350    -0.35600
C175        C  0.26863036  0.56151346  0.29538594     0.00600
C176        C  0.26424000  0.58031563  0.26623419     0.06600
C177        C  0.28110616  0.59896901  0.27589023    -0.06500
H178        H  0.25877805  0.54393323  0.29807906     0.07300
H179        H  0.28365760  0.61646261  0.25922364     0.08500
Cu180      Cu  0.30164388  0.55019959  0.37357383     0.44200
Cu181      Cu  0.32563067  0.60925673  0.33510141     0.42000
Cu182      Cu  0.35960657  0.57476712  0.41541604     0.43900
N183        N  0.31968562  0.53562169  0.42650666    -0.35100
N184        N  0.34167123  0.54365461  0.43999487    -0.29400
C185        C  0.34888721  0.52978598  0.47345714    -0.05500
C186        C  0.33028905  0.51263031  0.48196963     0.06700
C187        C  0.31198797  0.51686486  0.45183612     0.00500
H188        H  0.36599416  0.53255986  0.49114595     0.08200
H189        H  0.29456495  0.50683225  0.44818078     0.07200
N190        N  0.37159184  0.60851336  0.39037245    -0.36600
N191        N  0.35917568  0.62109069  0.36104104    -0.28800
C192        C  0.37195006  0.64194060  0.35129644    -0.04000
C193        C  0.39338415  0.64267336  0.37596329     0.04600
C194        C  0.39246912  0.62116728  0.40044737     0.02700
H195        H  0.36588601  0.65563440  0.32822738     0.07800
H196        H  0.40609613  0.61493860  0.42350041     0.06600
N197        N  0.66870169  0.54551200  0.44347163    -0.27800
N198        N  0.68957458  0.53598029  0.42780662    -0.35600
C199        C  0.69666308  0.51654157  0.45212394     0.00600
C200        C  0.67911570  0.51354254  0.48392973     0.06600
C201        C  0.66159588  0.53204978  0.47745869    -0.06500
H202        H  0.71314742  0.50526848  0.44671087     0.07300
H203        H  0.64527662  0.53589732  0.49669239     0.08500
Cu204      Cu  0.70708376  0.54969767  0.37374003     0.44200
Cu205      Cu  0.65191702  0.57760969  0.42055734     0.42000
Cu206      Cu  0.68472239  0.61010638  0.33729506     0.43900
N207        N  0.72177942  0.56865298  0.32188820    -0.35100
N208        N  0.71472962  0.59140217  0.31064112    -0.29400
C209        C  0.72879352  0.59907497  0.27772296    -0.05500
C210        C  0.74502134  0.58002207  0.26720577     0.06700
C211        C  0.74006673  0.56096224  0.29559193     0.00500
H212        H  0.72678071  0.61687055  0.26178146     0.08200
H213        H  0.74936415  0.54304347  0.29752446     0.07200
N214        N  0.65187349  0.62300500  0.36424137    -0.36600
N215        N  0.63998727  0.61117481  0.39506441    -0.28800
C216        C  0.61930745  0.62407088  0.40536580    -0.04000
C217        C  0.61793324  0.64491835  0.37940479     0.04600
C218        C  0.63890461  0.64360232  0.35366624     0.02700
H219        H  0.60596368  0.61830400  0.42926960     0.07800
H220        H  0.64440599  0.65662788  0.32910277     0.06600
O221        O  0.03027795  0.78090207  0.09227677    -0.73400
O222        O  0.97751427  0.72763493  0.09098475    -0.74400
O223        O  0.97738633  0.78068561  0.09173129    -0.63000
O224        O  0.03041092  0.72777975  0.09142472    -0.71400
O225        O  0.03035486  0.72748051  0.16192196    -0.71000
O226        O  0.97703061  0.78015951  0.16221788    -0.62200
O227        O  0.97719615  0.72734679  0.16147882    -0.74700
O228        O  0.03010304  0.78033685  0.16275955    -0.73500
Cu229      Cu  0.00390984  0.75425281  0.08914264     1.04600
Cu230      Cu  0.00366468  0.75380641  0.16453434     1.04300
C231        C  0.03851857  0.78908401  0.12777195     0.92800
C232        C  0.96894538  0.71912055  0.12604268     0.91900
C233        C  0.96880235  0.78880231  0.12703172     0.84100
C234        C  0.03882829  0.71928970  0.12658838     0.90300
N235        N  0.21243928  0.91803026  0.19683384    -0.27800
N236        N  0.22150106  0.93932120  0.18204952    -0.35600
C237        C  0.24083818  0.94644775  0.20653236     0.00600
C238        C  0.24427910  0.92853488  0.23756741     0.06600
C239        C  0.22612665  0.91072495  0.23045398    -0.06500
H240        H  0.25178376  0.96320564  0.20169431     0.07300
H241        H  0.22270804  0.89402978  0.24894797     0.08500
Cu242      Cu  0.20756151  0.95730576  0.12865388     0.44200
Cu243      Cu  0.18072484  0.90085729  0.17299626     0.42000
Cu244      Cu  0.14921622  0.93285551  0.08729480     0.43900
N245        N  0.18925322  0.97195577  0.07614085    -0.35100
N246        N  0.16724711  0.96395076  0.06267380    -0.29400
C247        C  0.15987826  0.97810202  0.02963299    -0.05500
C248        C  0.17839084  0.99540952  0.02145465     0.06700
C249        C  0.19678811  0.99097682  0.05128122     0.00500
H250        H  0.14270400  0.97546719  0.01206763     0.08200
H251        H  0.21417894  0.00104862  0.05505489     0.07200
N252        N  0.13608892  0.90019065  0.11481448    -0.36600
N253        N  0.14744718  0.88867735  0.14655026    -0.28800
C254        C  0.13424483  0.86825467  0.15726659    -0.04000
C255        C  0.11369165  0.86664704  0.13064577     0.04600
C256        C  0.11551303  0.88722934  0.10410353     0.02700
H257        H  0.13958419  0.85525987  0.18197532     0.07800
H258        H  0.10279029  0.89252269  0.07896404     0.06600
N259        N  0.21494437  0.59194079  0.18948529    -0.27800
N260        N  0.22250283  0.56958265  0.17702484    -0.35600
C261        C  0.24106862  0.56185641  0.20270642     0.00600
C262        C  0.24567687  0.58049555  0.23201499     0.06600
C263        C  0.22894734  0.59934205  0.22264902    -0.06500
H264        H  0.25073973  0.54418252  0.19980988     0.07300
H265        H  0.22655137  0.61677251  0.23955705     0.08500
Cu266      Cu  0.20777607  0.55109466  0.12480071     0.44200
Cu267      Cu  0.18426149  0.61023402  0.16402932     0.42000
Cu268      Cu  0.15107874  0.57771013  0.08094338     0.43900
N269        N  0.18956775  0.53700149  0.07179566    -0.35100
N270        N  0.16814352  0.54592779  0.05731473    -0.29400
C271        C  0.16064084  0.53205507  0.02407505    -0.05500
C272        C  0.17847717  0.51393526  0.01685629     0.06700
C273        C  0.19662313  0.51761019  0.04739909     0.00500
H274        H  0.14384743  0.53539012  0.00579163     0.08200
H275        H  0.21349529  0.50678782  0.05196615     0.07200
N276        N  0.13872031  0.61071309  0.10794607    -0.36600
N277        N  0.15069195  0.62253408  0.13865899    -0.28800
C278        C  0.13748606  0.64287090  0.14989047    -0.04000
C279        C  0.11629179  0.64404662  0.12466850     0.04600
C280        C  0.11776117  0.62335056  0.09839950     0.02700
H281        H  0.14309684  0.65595311  0.17427960     0.07800
H282        H  0.10441343  0.61762093  0.07449631     0.06600
N283        N  0.79441118  0.91823218  0.19069148    -0.27800
N284        N  0.78561385  0.93946498  0.17524214    -0.35600
C285        C  0.76617328  0.94695416  0.19921785     0.00600
C286        C  0.76233218  0.92927293  0.23052145     0.06600
C287        C  0.78039665  0.91126296  0.22412925    -0.06500
H288        H  0.75544795  0.96380695  0.19388343     0.07300
H289        H  0.78363668  0.89474832  0.24317662     0.08500
Cu290      Cu  0.80015850  0.95681104  0.12170934     0.44200
Cu291      Cu  0.82643725  0.90094434  0.16839071     0.42000
Cu292      Cu  0.86014570  0.93354938  0.08566084     0.43900
N293        N  0.81919806  0.97097569  0.06957160    -0.35100
N294        N  0.84184565  0.96358513  0.05831164    -0.29400
C295        C  0.84956014  0.97726255  0.02494555    -0.05500
C296        C  0.83061272  0.99357135  0.01418808     0.06700
C297        C  0.81160473  0.98909485  0.04289713     0.00500
H298        H  0.86730356  0.97495431  0.00892183     0.08200
H299        H  0.79378934  0.99860966  0.04479294     0.07200
N300        N  0.87219195  0.90041778  0.11271791    -0.36600
N301        N  0.86002445  0.88864598  0.14330562    -0.28800
C302        C  0.87262838  0.86780508  0.15374592    -0.04000
C303        C  0.89359537  0.86620938  0.12807717     0.04600
C304        C  0.89267393  0.88720091  0.10240002     0.02700
H305        H  0.86662687  0.85454501  0.17759748     0.07800
H306        H  0.90594788  0.89259762  0.07814997     0.06600
N307        N  0.79376097  0.59151601  0.18941880    -0.27800
N308        N  0.78656240  0.56888108  0.17788040    -0.35600
C309        C  0.76826381  0.56115107  0.20410939     0.00600
C310        C  0.76345351  0.58007213  0.23279528     0.06600
C311        C  0.77978043  0.59909328  0.22250526    -0.06500
H312        H  0.75891023  0.54327363  0.20200466     0.07300
H313        H  0.78195353  0.61675953  0.23876903     0.08500
Cu314      Cu  0.80145441  0.54999079  0.12622453     0.44200
Cu315      Cu  0.82412789  0.60984214  0.16319170     0.42000
Cu316      Cu  0.85925497  0.57515721  0.08481277     0.43900
N317        N  0.82000557  0.53539390  0.07395513    -0.35100
N318        N  0.84195188  0.54364829  0.06063706    -0.29400
C319        C  0.84944131  0.52982927  0.02731086    -0.05500
C320        C  0.83104480  0.51249023  0.01873305     0.06700
C321        C  0.81259628  0.51653959  0.04866615     0.00500
H322        H  0.86651924  0.53284732  0.00961913     0.08200
H323        H  0.79520789  0.50641208  0.05207607     0.07200
N324        N  0.87063683  0.60917424  0.10935089    -0.36600
N325        N  0.85790359  0.62175087  0.13829761    -0.28800
C326        C  0.87057185  0.64259850  0.14840192    -0.04000
C327        C  0.89217873  0.64333872  0.12421395     0.04600
C328        C  0.89154879  0.62188203  0.09970433     0.02700
H329        H  0.86436151  0.65628392  0.17138275     0.07800
H330        H  0.90546431  0.61568905  0.07708422     0.06600
O331        O  0.97766606  0.22722651  0.91089217    -0.73400
O332        O  0.03053287  0.28032895  0.91082289    -0.74400
O333        O  0.97768571  0.28036699  0.91060608    -0.63000
O334        O  0.03053869  0.22728259  0.91105292    -0.71400
O335        O  0.03079863  0.22727091  0.84055199    -0.71000
O336        O  0.97771189  0.28007927  0.84010227    -0.62200
O337        O  0.03074133  0.28012665  0.84033876    -0.74700
O338        O  0.97761010  0.22726563  0.84038118    -0.73500
Cu339      Cu  0.00409487  0.25379144  0.91329815     1.04600
Cu340      Cu  0.00421682  0.25366553  0.83789319     1.04300
C341        C  0.96922542  0.21888522  0.87565750     0.92800
C342        C  0.03899916  0.28866093  0.87557114     0.91900
C343        C  0.96937305  0.28866865  0.87524143     0.84100
C344        C  0.03911229  0.21894317  0.87589364     0.90300
N345        N  0.21228850  0.41836601  0.80754635    -0.27800
N346        N  0.22102496  0.43989586  0.82181806    -0.35600
C347        C  0.24010600  0.44725169  0.79693367     0.00600
C348        C  0.24371707  0.42923091  0.76618062     0.06600
C349        C  0.22595113  0.41112100  0.77387185    -0.06500
H350        H  0.25083707  0.46417342  0.80143738     0.07300
H351        H  0.22282033  0.39421556  0.75582022     0.08500
Cu352      Cu  0.20720786  0.45770472  0.87533595     0.44200
Cu353      Cu  0.18112901  0.40067614  0.83228036     0.42000
Cu354      Cu  0.14948046  0.43230219  0.91795830     0.43900
N355        N  0.18910357  0.47187075  0.92831067    -0.35100
N356        N  0.16730141  0.46355046  0.94222212    -0.29400
C357        C  0.15998523  0.47753021  0.97547981    -0.05500
C358        C  0.17833570  0.49504067  0.98329756     0.06700
C359        C  0.19657216  0.49093004  0.95306706     0.00500
H360        H  0.14294347  0.47468193  0.99335167     0.08200
H361        H  0.21376829  0.50128252  0.94887819     0.07200
N362        N  0.13684613  0.39928879  0.89117733    -0.36600
N363        N  0.14826388  0.38792964  0.85934496    -0.28800
C364        C  0.13525001  0.36740511  0.84864047    -0.04000
C365        C  0.11476672  0.36557818  0.87537364     0.04600
C366        C  0.11643333  0.38609627  0.90203083     0.02700
H367        H  0.14056218  0.35459286  0.82364937     0.07800
H368        H  0.10359708  0.39129164  0.92708355     0.06600
N369        N  0.21486641  0.09117013  0.81311375    -0.27800
N370        N  0.22236292  0.06879416  0.82564161    -0.35600
C371        C  0.24090194  0.06102442  0.79990532     0.00600
C372        C  0.24553873  0.07965733  0.77054572     0.06600
C373        C  0.22887074  0.09853409  0.77991548    -0.06500
H374        H  0.25057056  0.04334998  0.80284969     0.07300
H375        H  0.22652763  0.11597929  0.76301371     0.08500
Cu376      Cu  0.20774405  0.05039185  0.87821555     0.44200
Cu377      Cu  0.18430194  0.10969367  0.83829392     0.42000
Cu378      Cu  0.15117441  0.07728224  0.92141999     0.43900
N379        N  0.18968461  0.03672880  0.93186064    -0.35100
N380        N  0.16826108  0.04577554  0.94614121    -0.29400
C381        C  0.16078585  0.03223240  0.97984022    -0.05500
C382        C  0.17864433  0.01419636  0.98760201     0.06700
C383        C  0.19676650  0.01758779  0.95684833     0.00500
H384        H  0.14395907  0.03569658  0.99798573     0.08200
H385        H  0.21360812  0.00668611  0.95247913     0.07200
N386        N  0.13880583  0.11026706  0.89431242    -0.36600
N387        N  0.15079504  0.12207857  0.86358093    -0.28800
C388        C  0.13766239  0.14246802  0.85239754    -0.04000
C389        C  0.11649399  0.14368776  0.87769420     0.04600
C390        C  0.11789731  0.12296580  0.90393974     0.02700
H391        H  0.14331365  0.15555513  0.82802394     0.07800
H392        H  0.10455736  0.11727520  0.92789662     0.06600
N393        N  0.79398089  0.09151577  0.80964979    -0.27800
N394        N  0.78658067  0.06884385  0.82067651    -0.35600
C395        C  0.76822742  0.06150708  0.79425522     0.00600
C396        C  0.76359193  0.08071877  0.76600185     0.06600
C397        C  0.78008554  0.09949445  0.77674065    -0.06500
H398        H  0.75874135  0.04368095  0.79589433     0.07300
H399        H  0.78245189  0.11726326  0.76085343     0.08500
Cu400      Cu  0.80128051  0.04937087  0.87195497     0.44200
Cu401      Cu  0.82445744  0.10950364  0.83620636     0.42000
Cu402      Cu  0.85902260  0.07476848  0.91426646     0.43900
N403        N  0.81980973  0.03478010  0.92432353    -0.35100
N404        N  0.84162916  0.04317951  0.93796299    -0.29400
C405        C  0.84905593  0.02938100  0.97135130    -0.05500
C406        C  0.83077574  0.01187706  0.97962479     0.06700
C407        C  0.81243615  0.01582459  0.94947499     0.00500
H408        H  0.86600869  0.03252620  0.98928962     0.08200
H409        H  0.79513216  0.00558212  0.94586594     0.07200
N410        N  0.87076201  0.10879240  0.89025462    -0.36600
N411        N  0.85810264  0.12152900  0.86145100    -0.28800
C412        C  0.87077295  0.14245985  0.85179971    -0.04000
C413        C  0.89237214  0.14306487  0.87605606     0.04600
C414        C  0.89167606  0.12141533  0.90016449     0.02700
H415        H  0.86456390  0.15627829  0.82902394     0.07800
H416        H  0.90552281  0.11503880  0.92274535     0.06600
N417        N  0.84221460  0.46400830  0.94050061    -0.27800
N418        N  0.81962077  0.47141008  0.92897611    -0.35600
C419        C  0.81198963  0.48962850  0.95543033     0.00600
C420        C  0.83093057  0.49414959  0.98423652     0.06600
C421        C  0.84985718  0.47775924  0.97378317    -0.06500
H422        H  0.79419649  0.49916689  0.95334068     0.07300
H423        H  0.86753524  0.47543286  0.98998184     0.08500
Cu424      Cu  0.80076139  0.45705208  0.87678329     0.44200
Cu425      Cu  0.86059842  0.43385801  0.91377384     0.42000
Cu426      Cu  0.82769962  0.40106141  0.83089242     0.43900
N427        N  0.78663322  0.43932160  0.82327899    -0.35100
N428        N  0.79569786  0.41814416  0.80804735    -0.29400
C429        C  0.78180100  0.41091065  0.77464989    -0.05500
C430        C  0.76350841  0.42866783  0.76810405     0.06700
C431        C  0.76712201  0.44648922  0.79921870     0.00500
H432        H  0.78522746  0.39435683  0.75581735     0.08200
H433        H  0.75616994  0.46321234  0.80440049     0.07200
N434        N  0.86100353  0.38873531  0.85694156    -0.36600
N435        N  0.87295546  0.40063195  0.88758031    -0.28800
C436        C  0.89338537  0.38747760  0.89843079    -0.04000
C437        C  0.89448544  0.36636934  0.87305678     0.04600
C438        C  0.87366092  0.36784741  0.84704627     0.02700
H439        H  0.90651195  0.39301801  0.92279024     0.07800
H440        H  0.86781031  0.35451256  0.82323489     0.06600
C441        C  0.06436763  0.32117262  0.91314341    -0.13800
C442        C  0.05841179  0.30832122  0.87554582     0.08300
C443        C  0.07112937  0.31449549  0.83789136    -0.13800
C444        C  0.08955706  0.33298832  0.83791688    -0.13800
C445        C  0.09536515  0.34593549  0.87543571     0.08300
C446        C  0.08253214  0.33992914  0.91300741    -0.13800
H447        H  0.05486868  0.31686331  0.94264540     0.12300
H448        H  0.06696225  0.30492791  0.80842524     0.12300
H449        H  0.09900907  0.33738197  0.80842359     0.12300
H450        H  0.08677787  0.34947445  0.94245648     0.12300
C451        C  0.07296205  0.19476388  0.83944018    -0.13800
C452        C  0.05881983  0.19961460  0.87616796     0.08300
C453        C  0.06379287  0.18593788  0.91331566    -0.13800
C454        C  0.08241049  0.16765305  0.91366365    -0.13800
C455        C  0.09669089  0.16293918  0.87707318     0.08300
C456        C  0.09186164  0.17673212  0.83999256    -0.13800
H457        H  0.06958497  0.20506954  0.81038282     0.12300
H458        H  0.05317995  0.18924910  0.94207997     0.12300
H459        H  0.08585461  0.15747274  0.94280811     0.12300
H460        H  0.10244734  0.17336429  0.81123077     0.12300
C461        C  0.92720617  0.16610854  0.91185128    -0.13800
C462        C  0.91203929  0.16247624  0.87595170     0.08300
C463        C  0.91585534  0.17751247  0.83992811    -0.13800
C464        C  0.93461057  0.19567902  0.83967696    -0.13800
C465        C  0.94961757  0.19946313  0.87572075     0.08300
C466        C  0.94566715  0.18457315  0.91187353    -0.13800
H467        H  0.92457557  0.15493212  0.94019267     0.12300
H468        H  0.90459506  0.17500484  0.81166295     0.12300
H469        H  0.93720400  0.20693980  0.81140906     0.12300
H470        H  0.95700471  0.18705049  0.94006998     0.12300
C471        C  0.94539468  0.32270355  0.91146247    -0.13800
C472        C  0.95008379  0.30840168  0.87489079     0.08300
C473        C  0.93632519  0.31327543  0.83779441    -0.13800
C474        C  0.91812859  0.33197940  0.83733803    -0.13800
C475        C  0.91359980  0.34644029  0.87376032     0.08300
C476        C  0.92745592  0.34168040  0.91079873    -0.13800
H477        H  0.95576913  0.31940517  0.94046592     0.12300
H478        H  0.93951426  0.30252633  0.80915234     0.12300
H479        H  0.90788129  0.33535321  0.80824202     0.12300
H480        H  0.92422420  0.35238948  0.93944753     0.12300
C481        C  0.08116494  0.84163318  0.09245442    -0.13800
C482        C  0.09438944  0.84686427  0.12996600     0.08300
C483        C  0.08915468  0.83290549  0.16671332    -0.13800
C484        C  0.07092441  0.81421200  0.16604581    -0.13800
C485        C  0.05781783  0.80885227  0.12844212     0.08300
C486        C  0.06319713  0.82269008  0.09160803    -0.13800
H487        H  0.08494834  0.85191849  0.06353922     0.12300
H488        H  0.09891245  0.83663115  0.19616223     0.12300
H489        H  0.06721022  0.80385155  0.19492149     0.12300
H490        H  0.05337169  0.81902760  0.06219006     0.12300
C491        C  0.94405954  0.82199640  0.09005630    -0.13800
C492        C  0.94932717  0.80837995  0.12717309     0.08300
C493        C  0.93595145  0.81378729  0.16449940    -0.13800
C494        C  0.91764184  0.83240433  0.16466995    -0.13800
C495        C  0.91264585  0.84623680  0.12771679     0.08300
C496        C  0.92603205  0.84087825  0.09042250    -0.13800
H497        H  0.95406955  0.81826307  0.06082497     0.12300
H498        H  0.93955256  0.80355878  0.19355189     0.12300
H499        H  0.90770068  0.83624637  0.19391693     0.12300
H500        H  0.92238871  0.85108454  0.06137944     0.12300
C501        C  0.07266314  0.69505652  0.16302589    -0.13800
C502        C  0.05852522  0.69993139  0.12631720     0.08300
C503        C  0.06348457  0.68623886  0.08918602    -0.13800
C504        C  0.08210354  0.66794790  0.08881836    -0.13800
C505        C  0.09641594  0.66324334  0.12536349     0.08300
C506        C  0.09157277  0.67702548  0.16244648    -0.13800
H507        H  0.06928283  0.70535699  0.19208262     0.12300
H508        H  0.05286537  0.68955701  0.06043707     0.12300
H509        H  0.08554684  0.65777101  0.05966102     0.12300
H510        H  0.10216995  0.67365717  0.19119305     0.12300
C511        C  0.94427329  0.68620040  0.08830185    -0.13800
C512        C  0.94934000  0.69968612  0.12561500     0.08300
C513        C  0.93544238  0.69448223  0.16248337    -0.13800
C514        C  0.91669007  0.67632233  0.16191599    -0.13800
C515        C  0.91180244  0.66271527  0.12470726     0.08300
C516        C  0.92583361  0.66772644  0.08797204    -0.13800
H517        H  0.95469956  0.68978296  0.05942955     0.12300
H518        H  0.93889996  0.70460544  0.19168329     0.12300
H519        H  0.90627111  0.67267381  0.19076656     0.12300
H520        H  0.92230045  0.65762145  0.05878155     0.12300
C521        C  0.56545717  0.82065726  0.41442733    -0.13800
C522        C  0.55917526  0.80819534  0.37660370     0.08300
C523        C  0.57189011  0.81441986  0.33896855    -0.13800
C524        C  0.59061848  0.83259982  0.33922956    -0.13800
C525        C  0.59672576  0.84517638  0.37696809     0.08300
C526        C  0.58392311  0.83910388  0.41452807    -0.13800
H527        H  0.55599344  0.81627209  0.44393349     0.12300
H528        H  0.56748451  0.80513229  0.30933758     0.12300
H529        H  0.60005144  0.83707977  0.30973236     0.12300
H530        H  0.58840964  0.84838422  0.44414024     0.12300
C531        C  0.43515417  0.69584538  0.34023044    -0.13800
C532        C  0.45029299  0.69946506  0.37614693     0.08300
C533        C  0.44665700  0.68423113  0.41197589    -0.13800
C534        C  0.42833585  0.66561613  0.41177656    -0.13800
C535        C  0.41300548  0.66216053  0.37601530     0.08300
C536        C  0.41655519  0.67751916  0.34029686    -0.13800
H537        H  0.43750009  0.70737321  0.31223073     0.12300
H538        H  0.45814115  0.68654297  0.44002448     0.12300
H539        H  0.42596192  0.65419146  0.43986713     0.12300
H540        H  0.40518416  0.67519680  0.31214700     0.12300
C541        C  0.59283595  0.67742173  0.34128681    -0.13800
C542        C  0.59798489  0.66400808  0.37864649     0.08300
C543        C  0.58375981  0.66880823  0.41525341    -0.13800
C544        C  0.56486620  0.68680809  0.41463368    -0.13800
C545        C  0.55956456  0.70010243  0.37720444     0.08300
C546        C  0.57366690  0.69516190  0.34046963    -0.13800
H547        H  0.60336113  0.67395494  0.31249470     0.12300
H548        H  0.58744083  0.65889223  0.44457893     0.12300
H549        H  0.55430796  0.69020728  0.44342938     0.12300
H550        H  0.57005479  0.70517598  0.31120473     0.12300
C551        C  0.41974486  0.83341100  0.33721289    -0.13800
C552        C  0.41475020  0.84743611  0.37394552     0.08300
C553        C  0.42791864  0.84202711  0.41144904    -0.13800
C554        C  0.44561718  0.82281477  0.41226718    -0.13800
C555        C  0.45076246  0.80891911  0.37540262     0.08300
C556        C  0.43770170  0.81447271  0.33784267    -0.13800
H557        H  0.41002325  0.83729198  0.30777720     0.12300
H558        H  0.42429981  0.85239075  0.44033762     0.12300
H559        H  0.45544257  0.81901159  0.44164074     0.12300
H560        H  0.44125993  0.80408765  0.30893836     0.12300
C561        C  0.44435022  0.32253863  0.59084076    -0.13800
C562        C  0.44947977  0.30864066  0.62772162     0.08300
C563        C  0.43618679  0.31397081  0.66514535    -0.13800
C564        C  0.41806872  0.33276587  0.66563656    -0.13800
C565        C  0.41316329  0.34685676  0.62891012     0.08300
C566        C  0.42650443  0.34159494  0.59152518    -0.13800
H567        H  0.45433184  0.31887819  0.56154316     0.12300
H568        H  0.43971820  0.30354982  0.69403274     0.12300
H569        H  0.40819569  0.33652945  0.69499666     0.12300
H570        H  0.42294302  0.35199143  0.56262794     0.12300
C571        C  0.56404627  0.18727354  0.58689838    -0.13800
C572        C  0.55902305  0.20060992  0.62439103     0.08300
C573        C  0.57336725  0.19567917  0.66083087    -0.13800
C574        C  0.59253847  0.17795018  0.65964439    -0.13800
C575        C  0.59745018  0.16453369  0.62220858     0.08300
C576        C  0.58294181  0.16927471  0.58591883    -0.13800
H577        H  0.55327100  0.19063683  0.55834482     0.12300
H578        H  0.56996264  0.20571484  0.69013684     0.12300
H579        H  0.60328176  0.17452652  0.68819215     0.12300
H580        H  0.58641667  0.15933777  0.55655903     0.12300
C581        C  0.56314913  0.32246768  0.58833197    -0.13800
C582        C  0.55803680  0.30890323  0.62557997     0.08300
C583        C  0.57193560  0.31400382  0.66243501    -0.13800
C584        C  0.59077873  0.33206885  0.66190624    -0.13800
C585        C  0.59585730  0.34566520  0.62470270     0.08300
C586        C  0.58175367  0.34079437  0.58798668    -0.13800
H587        H  0.55270190  0.31899392  0.55947082     0.12300
H588        H  0.56843949  0.30384363  0.69159760     0.12300
H589        H  0.60115000  0.33558328  0.69081392     0.12300
H590        H  0.58533762  0.35086500  0.55877888     0.12300
C591        C  0.42631383  0.16717800  0.59013912    -0.13800
C592        C  0.41274797  0.16201095  0.62732129     0.08300
C593        C  0.41791964  0.17566652  0.66436982    -0.13800
C594        C  0.43646904  0.19404071  0.66433194    -0.13800
C595        C  0.44987967  0.19941353  0.62701904     0.08300
C596        C  0.44455125  0.18585675  0.58987852    -0.13800
H597        H  0.42256127  0.15704786  0.56105656     0.12300
H598        H  0.40786914  0.17190710  0.69355679     0.12300
H599        H  0.44014389  0.20419890  0.69341539     0.12300
H600        H  0.45460794  0.18955274  0.56067112     0.12300
loop_ 
_geom_bond_atom_site_label_1 
_geom_bond_atom_site_label_2 
_geom_bond_distance 
_geom_bond_site_symmetry_2 
_ccdc_geom_bond_type 
N1            N2   1.323       .  A
N1            C5   1.344       .  A
N1           Cu9   2.071       .  S
N2            C3   1.346       .  A
N2           Cu8   2.074       .  S
C3            C4   1.381       .  A
C3            H6   1.082       .  S
C4            C5   1.380       .  A
C4          C372   1.465       .  S
C5            H7   1.082       .  S
Cu8          N11   2.074       .  S
Cu9          N19   2.071       .  S
Cu10         N12   2.069       .  S
Cu10         N18   2.070       .  S
N11          N12   1.323       .  A
N11          C15   1.345       .  A
N12          C13   1.344       .  A
C13          C14   1.380       .  A
C13          H16   1.082       .  S
C14          C15   1.381       .  A
C14         C114   1.464   1_545  S
C15          H17   1.082       .  S
N18          N19   1.321       .  A
N18          C22   1.344       .  A
N19          C20   1.344       .  A
C20          C21   1.385       .  A
C20          H23   1.082       .  S
C21          C22   1.384       .  A
C21         C592   1.477       .  S
C22          H24   1.082       .  S
O25         Cu33   2.006       .  S
O25          C35   1.278       .  A
O26         Cu33   2.006       .  S
O26          C36   1.278       .  A
O27         Cu33   2.004       .  S
O27          C37   1.278       .  A
O28         Cu33   2.004       .  S
O28          C38   1.278       .  A
O29         Cu34   2.008       .  S
O29          C38   1.278       .  A
O30         Cu34   2.008       .  S
O30          C37   1.278       .  A
O31         Cu34   2.007       .  S
O31          C36   1.278       .  A
O32         Cu34   2.007       .  S
O32          C35   1.278       .  A
Cu33        Cu34   2.372       .  S
C35         C595   1.478       .  S
C36         C582   1.478       .  S
C37         C572   1.477       .  S
C38         C562   1.477       .  S
N39          N40   1.323       .  A
N39          C43   1.344       .  A
N39         Cu47   2.068       .  S
N40          C41   1.346       .  A
N40         Cu46   2.076       .  S
C41          C42   1.381       .  A
C41          H44   1.082       .  S
C42          C43   1.379       .  A
C42         C152   1.463   1_545  S
C43          H45   1.082       .  S
Cu46         N49   2.075       .  S
Cu47         N57   2.069       .  S
Cu48         N50   2.071       .  S
Cu48         N56   2.071       .  S
N49          N50   1.323       .  A
N49          C53   1.345       .  A
N50          C51   1.345       .  A
C51          C52   1.380       .  A
C51          H54   1.082       .  S
C52          C53   1.381       .  A
C52         C396   1.465       .  S
C53          H55   1.082       .  S
N56          N57   1.321       .  A
N56          C60   1.344       .  A
N57          C58   1.344       .  A
C58          C59   1.384       .  A
C58          H61   1.081       .  S
C59          C60   1.385       .  A
C59         C575   1.478       .  S
C60          H62   1.081       .  S
N63          N64   1.323       .  A
N63          C67   1.344       .  A
N63         Cu71   2.067       .  S
N64          C65   1.345       .  A
N64         Cu70   2.075       .  S
C65          C66   1.380       .  A
C65          H68   1.082       .  S
C66          C67   1.379       .  A
C66         C348   1.461       .  S
C67          H69   1.082       .  S
Cu70         N73   2.075       .  S
Cu71         N81   2.067       .  S
Cu72         N74   2.072       .  S
Cu72         N80   2.073       .  S
N73          N74   1.323       .  A
N73          C77   1.346       .  A
N74          C75   1.345       .  A
C75          C76   1.380       .  A
C75          H78   1.082       .  S
C76          C77   1.382       .  A
C76         C186   1.466       .  S
C77          H79   1.082       .  S
N80          N81   1.321       .  A
N80          C84   1.345       .  A
N81          C82   1.344       .  A
C82          C83   1.384       .  A
C82          H85   1.082       .  S
C83          C84   1.386       .  A
C83         C565   1.478       .  S
C84          H86   1.082       .  S
N87          N88   1.323       .  A
N87          C91   1.345       .  A
N87         Cu95   2.073       .  S
N88          C89   1.345       .  A
N88         Cu94   2.073       .  S
C89          C90   1.380       .  A
C89          H92   1.082       .  S
C90          C91   1.380       .  A
C90         C430   1.464       .  S
C91          H93   1.082       .  S
Cu94         N97   2.074       .  S
Cu95        N105   2.073       .  S
Cu96         N98   2.070       .  S
Cu96        N104   2.070       .  S
N97          N98   1.323       .  A
N97         C101   1.346       .  A
N98          C99   1.344       .  A
C99         C100   1.379       .  A
C99         H102   1.082       .  S
C100        C101   1.381       .  A
C100        C200   1.463       .  S
C101        H103   1.082       .  S
N104        N105   1.321       .  A
N104        C108   1.344       .  A
N105        C106   1.344       .  A
C106        C107   1.386       .  A
C106        H109   1.081       .  S
C107        C108   1.385       .  A
C107        C585   1.479       .  S
C108        H110   1.081       .  S
N111        N112   1.323       .  A
N111        C115   1.344       .  A
N111       Cu119   2.070       .  S
N112        C113   1.346       .  A
N112       Cu118   2.075       .  S
C113        C114   1.381       .  A
C113        H116   1.082       .  S
C114        C115   1.380       .  A
C115        H117   1.082       .  S
Cu118       N121   2.075       .  S
Cu119       N129   2.070       .  S
Cu120       N122   2.070       .  S
Cu120       N128   2.070       .  S
N121        N122   1.323       .  A
N121        C125   1.346       .  A
N122        C123   1.345       .  A
C123        C124   1.379       .  A
C123        H126   1.082       .  S
C124        C125   1.381       .  A
C124        C238   1.463       .  S
C125        H127   1.082       .  S
N128        N129   1.321       .  A
N128        C132   1.344       .  A
N129        C130   1.345       .  A
C130        C131   1.385       .  A
C130        H133   1.081       .  S
C131        C132   1.385       .  A
C131        C552   1.478       .  S
C132        H134   1.082       .  S
O135       Cu143   2.008       .  S
O135        C145   1.278       .  A
O136       Cu143   2.005       .  S
O136        C146   1.278       .  A
O137       Cu143   2.006       .  S
O137        C147   1.278       .  A
O138       Cu143   2.008       .  S
O138        C148   1.278       .  A
O139       Cu144   2.007       .  S
O139        C148   1.278       .  A
O140       Cu144   2.005       .  S
O140        C147   1.278       .  A
O141       Cu144   2.008       .  S
O141        C146   1.278       .  A
O142       Cu144   2.004       .  S
O142        C145   1.278       .  A
Cu143      Cu144   2.372       .  S
C145        C545   1.477       .  S
C146        C555   1.478       .  S
C147        C522   1.478       .  S
C148        C532   1.477       .  S
N149        N150   1.323       .  A
N149        C153   1.345       .  A
N149       Cu157   2.071       .  S
N150        C151   1.346       .  A
N150       Cu156   2.076       .  S
C151        C152   1.381       .  A
C151        H154   1.082   1_565  S
C152        C153   1.379       .  A
C153        H155   1.082       .  S
Cu156       N159   2.075       .  S
Cu157       N167   2.070       .  S
Cu158       N160   2.069       .  S
Cu158       N166   2.069       .  S
N159        N160   1.323       .  A
N159        C163   1.346       .  A
N160        C161   1.344       .  A
C161        C162   1.380       .  A
C161        H164   1.082       .  S
C162        C163   1.381       .  A
C162        C286   1.464       .  S
C163        H165   1.082       .  S
N166        N167   1.321       .  A
N166        C170   1.344       .  A
N167        C168   1.344       .  A
C168        C169   1.385       .  A
C168        H171   1.082       .  S
C169        C170   1.384       .  A
C169        C525   1.477       .  S
C170        H172   1.082       .  S
N173        N174   1.323       .  A
N173        C177   1.345       .  A
N173       Cu181   2.071       .  S
N174        C175   1.346       .  A
N174       Cu180   2.077       .  S
C175        C176   1.382       .  A
C175        H178   1.082       .  S
C176        C177   1.380       .  A
C176        C262   1.465       .  S
C177        H179   1.082       .  S
Cu180       N183   2.077       .  S
Cu181       N191   2.071       .  S
Cu182       N184   2.072       .  S
Cu182       N190   2.072       .  S
N183        N184   1.323       .  A
N183        C187   1.346       .  A
N184        C185   1.345       .  A
C185        C186   1.380       .  A
C185        H188   1.082       .  S
C186        C187   1.382       .  A
C187        H189   1.082       .  S
N190        N191   1.321       .  A
N190        C194   1.345       .  A
N191        C192   1.344       .  A
C192        C193   1.386       .  A
C192        H195   1.081       .  S
C193        C194   1.386       .  A
C193        C535   1.480       .  S
C194        H196   1.081       .  S
N197        N198   1.323       .  A
N197        C201   1.344       .  A
N197       Cu205   2.068       .  S
N198        C199   1.346       .  A
N198       Cu204   2.076       .  S
C199        C200   1.381       .  A
C199        H202   1.082       .  S
C200        C201   1.379       .  A
C201        H203   1.082       .  S
Cu204       N207   2.075       .  S
Cu205       N215   2.068       .  S
Cu206       N208   2.069       .  S
Cu206       N214   2.069       .  S
N207        N208   1.323       .  A
N207        C211   1.346       .  A
N208        C209   1.344       .  A
C209        C210   1.380       .  A
C209        H212   1.082       .  S
C210        C211   1.381       .  A
C210        C310   1.464       .  S
C211        H213   1.082       .  S
N214        N215   1.321       .  A
N214        C218   1.344       .  A
N215        C216   1.344       .  A
C216        C217   1.385       .  A
C216        H219   1.082       .  S
C217        C218   1.385       .  A
C217        C542   1.478       .  S
C218        H220   1.081       .  S
O221       Cu229   2.009       .  S
O221        C231   1.278       .  A
O222       Cu229   2.007   1_655  S
O222        C232   1.278       .  A
O223       Cu229   2.005   1_655  S
O223        C233   1.278       .  A
O224       Cu229   2.006       .  S
O224        C234   1.278       .  A
O225       Cu230   2.008       .  S
O225        C234   1.278       .  A
O226       Cu230   2.006   1_655  S
O226        C233   1.278       .  A
O227       Cu230   2.006   1_655  S
O227        C232   1.278       .  A
O228       Cu230   2.005       .  S
O228        C231   1.278       .  A
Cu229      Cu230   2.372       .  S
C231        C485   1.479       .  S
C232        C512   1.478       .  S
C233        C492   1.478       .  S
C234        C502   1.478       .  S
N235        N236   1.323       .  A
N235        C239   1.345       .  A
N235       Cu243   2.071       .  S
N236        C237   1.346       .  A
N236       Cu242   2.075       .  S
C237        C238   1.381       .  A
C237        H240   1.082       .  S
C238        C239   1.380       .  A
C239        H241   1.082       .  S
Cu242       N245   2.075       .  S
Cu243       N253   2.071       .  S
Cu244       N246   2.074       .  S
Cu244       N252   2.074       .  S
N245        N246   1.323       .  A
N245        C249   1.345       .  A
N246        C247   1.345       .  A
C247        C248   1.380       .  A
C247        H250   1.082       .  S
C248        C249   1.381       .  A
C248        C382   1.465   1_564  S
C249        H251   1.082   1_565  S
N252        N253   1.321       .  A
N252        C256   1.345       .  A
N253        C254   1.345       .  A
C254        C255   1.385       .  A
C254        H257   1.081       .  S
C255        C256   1.386       .  A
C255        C482   1.480       .  S
C256        H258   1.081       .  S
N259        N260   1.323       .  A
N259        C263   1.345       .  A
N259       Cu267   2.072       .  S
N260        C261   1.346       .  A
N260       Cu266   2.074       .  S
C261        C262   1.381       .  A
C261        H264   1.082       .  S
C262        C263   1.380       .  A
C263        H265   1.082       .  S
Cu266       N269   2.074       .  S
Cu267       N277   2.073       .  S
Cu268       N270   2.069       .  S
Cu268       N276   2.069       .  S
N269        N270   1.323       .  A
N269        C273   1.345       .  A
N270        C271   1.344       .  A
C271        C272   1.379       .  A
C271        H274   1.082       .  S
C272        C273   1.381       .  A
C272        C358   1.462   1_554  S
C273        H275   1.082       .  S
N276        N277   1.321       .  A
N276        C280   1.344       .  A
N277        C278   1.345       .  A
C278        C279   1.386       .  A
C278        H281   1.082       .  S
C279        C280   1.385       .  A
C279        C505   1.479       .  S
C280        H282   1.082       .  S
N283        N284   1.323       .  A
N283        C287   1.344       .  A
N283       Cu291   2.070       .  S
N284        C285   1.346       .  A
N284       Cu290   2.074       .  S
C285        C286   1.381       .  A
C285        H288   1.082       .  S
C286        C287   1.380       .  A
C287        H289   1.082       .  S
Cu290       N293   2.074       .  S
Cu291       N301   2.070       .  S
Cu292       N294   2.070       .  S
Cu292       N300   2.070       .  S
N293        N294   1.323       .  A
N293        C297   1.345       .  A
N294        C295   1.344       .  A
C295        C296   1.380       .  A
C295        H298   1.082       .  S
C296        C297   1.381       .  A
C296        C406   1.464   1_564  S
C297        H299   1.082       .  S
N300        N301   1.321       .  A
N300        C304   1.344       .  A
N301        C302   1.344       .  A
C302        C303   1.385       .  A
C302        H305   1.081       .  S
C303        C304   1.385       .  A
C303        C495   1.477       .  S
C304        H306   1.081       .  S
N307        N308   1.323       .  A
N307        C311   1.344       .  A
N307       Cu315   2.069       .  S
N308        C309   1.345       .  A
N308       Cu314   2.073       .  S
C309        C310   1.381       .  A
C309        H312   1.082       .  S
C310        C311   1.380       .  A
C311        H313   1.082       .  S
Cu314       N317   2.073       .  S
Cu315       N325   2.070       .  S
Cu316       N318   2.070       .  S
Cu316       N324   2.070       .  S
N317        N318   1.323       .  A
N317        C321   1.345       .  A
N318        C319   1.344       .  A
C319        C320   1.380       .  A
C319        H322   1.082       .  S
C320        C321   1.381       .  A
C320        C420   1.464   1_554  S
C321        H323   1.082       .  S
N324        N325   1.322       .  A
N324        C328   1.344       .  A
N325        C326   1.344       .  A
C326        C327   1.384       .  A
C326        H329   1.082       .  S
C327        C328   1.384       .  A
C327        C515   1.476       .  S
C328        H330   1.082       .  S
O331       Cu339   2.007   1_655  S
O331        C341   1.278       .  A
O332       Cu339   2.006       .  S
O332        C342   1.278       .  A
O333       Cu339   2.007   1_655  S
O333        C343   1.278       .  A
O334       Cu339   2.005       .  S
O334        C344   1.278       .  A
O335       Cu340   2.006       .  S
O335        C344   1.278       .  A
O336       Cu340   2.003   1_655  S
O336        C343   1.278       .  A
O337       Cu340   2.007       .  S
O337        C342   1.278       .  A
O338       Cu340   2.008   1_655  S
O338        C341   1.278       .  A
Cu339      Cu340   2.372       .  S
C341        C465   1.477       .  S
C342        C442   1.479       .  S
C343        C472   1.477       .  S
C344        C452   1.477       .  S
N345        N346   1.323       .  A
N345        C349   1.344       .  A
N345       Cu353   2.069       .  S
N346        C347   1.345       .  A
N346       Cu352   2.071       .  S
C347        C348   1.380       .  A
C347        H350   1.082       .  S
C348        C349   1.379       .  A
C349        H351   1.082       .  S
Cu352       N355   2.071       .  S
Cu353       N363   2.069       .  S
Cu354       N356   2.072       .  S
Cu354       N362   2.072       .  S
N355        N356   1.323       .  A
N355        C359   1.345       .  A
N356        C357   1.345       .  A
C357        C358   1.380       .  A
C357        H360   1.082       .  S
C358        C359   1.380       .  A
C359        H361   1.082       .  S
N362        N363   1.321       .  A
N362        C366   1.345       .  A
N363        C364   1.344       .  A
C364        C365   1.385       .  A
C364        H367   1.081       .  S
C365        C366   1.385       .  A
C365        C445   1.478       .  S
C366        H368   1.082       .  S
N369        N370   1.323       .  A
N369        C373   1.344       .  A
N369       Cu377   2.070       .  S
N370        C371   1.346       .  A
N370       Cu376   2.077       .  S
C371        C372   1.382       .  A
C371        H374   1.082       .  S
C372        C373   1.379       .  A
C373        H375   1.082       .  S
Cu376       N379   2.077       .  S
Cu377       N387   2.070       .  S
Cu378       N380   2.070       .  S
Cu378       N386   2.069       .  S
N379        N380   1.323       .  A
N379        C383   1.346       .  A
N380        C381   1.345       .  A
C381        C382   1.380       .  A
C381        H384   1.082       .  S
C382        C383   1.381       .  A
C383        H385   1.082       .  S
N386        N387   1.321       .  A
N386        C390   1.343       .  A
N387        C388   1.345       .  A
C388        C389   1.385       .  A
C388        H391   1.082       .  S
C389        C390   1.385       .  A
C389        C455   1.478       .  S
C390        H392   1.082       .  S
N393        N394   1.323       .  A
N393        C397   1.344       .  A
N393       Cu401   2.070       .  S
N394        C395   1.346       .  A
N394       Cu400   2.075       .  S
C395        C396   1.382       .  A
C395        H398   1.082       .  S
C396        C397   1.380       .  A
C397        H399   1.082       .  S
Cu400       N403   2.076       .  S
Cu401       N411   2.071       .  S
Cu402       N404   2.069       .  S
Cu402       N410   2.069       .  S
N403        N404   1.323       .  A
N403        C407   1.346       .  A
N404        C405   1.344       .  A
C405        C406   1.379       .  A
C405        H408   1.082       .  S
C406        C407   1.381       .  A
C407        H409   1.082       .  S
N410        N411   1.321       .  A
N410        C414   1.344       .  A
N411        C412   1.344       .  A
C412        C413   1.386       .  A
C412        H415   1.082       .  S
C413        C414   1.385       .  A
C413        C462   1.479       .  S
C414        H416   1.082       .  S
N417        N418   1.323       .  A
N417        C421   1.344       .  A
N417       Cu425   2.069       .  S
N418        C419   1.346       .  A
N418       Cu424   2.076       .  S
C419        C420   1.381       .  A
C419        H422   1.082       .  S
C420        C421   1.379       .  A
C421        H423   1.082       .  S
Cu424       N427   2.076       .  S
Cu425       N435   2.069       .  S
Cu426       N428   2.070       .  S
Cu426       N434   2.069       .  S
N427        N428   1.323       .  A
N427        C431   1.345       .  A
N428        C429   1.345       .  A
C429        C430   1.380       .  A
C429        H432   1.082       .  S
C430        C431   1.381       .  A
C431        H433   1.082       .  S
N434        N435   1.321       .  A
N434        C438   1.344       .  A
N435        C436   1.344       .  A
C436        C437   1.385       .  A
C436        H439   1.081       .  S
C437        C438   1.385       .  A
C437        C475   1.478       .  S
C438        H440   1.081       .  S
C441        C442   1.405       .  A
C441        C446   1.398       .  A
C441        H447   1.083       .  S
C442        C443   1.405       .  A
C443        C444   1.397       .  A
C443        H448   1.083       .  S
C444        C445   1.404       .  A
C444        H449   1.082       .  S
C445        C446   1.404       .  A
C446        H450   1.083       .  S
C451        C452   1.405       .  A
C451        C456   1.398       .  A
C451        H457   1.083       .  S
C452        C453   1.404       .  A
C453        C454   1.396       .  A
C453        H458   1.083       .  S
C454        C455   1.404       .  A
C454        H459   1.082       .  S
C455        C456   1.404       .  A
C456        H460   1.082       .  S
C461        C462   1.405       .  A
C461        C466   1.398       .  A
C461        H467   1.083       .  S
C462        C463   1.405       .  A
C463        C464   1.398       .  A
C463        H468   1.083       .  S
C464        C465   1.405       .  A
C464        H469   1.083       .  S
C465        C466   1.405       .  A
C466        H470   1.083       .  S
C471        C472   1.405       .  A
C471        C476   1.398       .  A
C471        H477   1.083       .  S
C472        C473   1.405       .  A
C473        C474   1.396       .  A
C473        H478   1.083       .  S
C474        C475   1.404       .  A
C474        H479   1.082       .  S
C475        C476   1.405       .  A
C476        H480   1.082       .  S
C481        C482   1.405       .  A
C481        C486   1.398       .  A
C481        H487   1.082       .  S
C482        C483   1.404       .  A
C483        C484   1.398       .  A
C483        H488   1.082       .  S
C484        C485   1.405       .  A
C484        H489   1.083       .  S
C485        C486   1.405       .  A
C486        H490   1.083       .  S
C491        C492   1.405       .  A
C491        C496   1.397       .  A
C491        H497   1.083       .  S
C492        C493   1.405       .  A
C493        C494   1.397       .  A
C493        H498   1.083       .  S
C494        C495   1.404       .  A
C494        H499   1.082       .  S
C495        C496   1.404       .  A
C496        H500   1.082       .  S
C501        C502   1.405       .  A
C501        C506   1.398       .  A
C501        H507   1.083       .  S
C502        C503   1.405       .  A
C503        C504   1.397       .  A
C503        H508   1.083       .  S
C504        C505   1.404       .  A
C504        H509   1.083       .  S
C505        C506   1.405       .  A
C506        H510   1.083       .  S
C511        C512   1.405       .  A
C511        C516   1.397       .  A
C511        H517   1.083       .  S
C512        C513   1.405       .  A
C513        C514   1.397       .  A
C513        H518   1.083       .  S
C514        C515   1.404       .  A
C514        H519   1.083       .  S
C515        C516   1.404       .  A
C516        H520   1.083       .  S
C521        C522   1.405       .  A
C521        C526   1.397       .  A
C521        H527   1.083       .  S
C522        C523   1.405       .  A
C523        C524   1.397       .  A
C523        H528   1.083       .  S
C524        C525   1.404       .  A
C524        H529   1.083       .  S
C525        C526   1.404       .  A
C526        H530   1.083       .  S
C531        C532   1.404       .  A
C531        C536   1.398       .  A
C531        H537   1.083       .  S
C532        C533   1.405       .  A
C533        C534   1.398       .  A
C533        H538   1.083       .  S
C534        C535   1.405       .  A
C534        H539   1.082       .  S
C535        C536   1.405       .  A
C536        H540   1.082       .  S
C541        C542   1.405       .  A
C541        C546   1.398       .  A
C541        H547   1.082       .  S
C542        C543   1.404       .  A
C543        C544   1.396       .  A
C543        H548   1.082       .  S
C544        C545   1.405       .  A
C544        H549   1.083       .  S
C545        C546   1.405       .  A
C546        H550   1.083       .  S
C551        C552   1.404       .  A
C551        C556   1.397       .  A
C551        H557   1.082       .  S
C552        C553   1.405       .  A
C553        C554   1.398       .  A
C553        H558   1.082       .  S
C554        C555   1.405       .  A
C554        H559   1.083       .  S
C555        C556   1.405       .  A
C556        H560   1.083       .  S
C561        C562   1.405       .  A
C561        C566   1.397       .  A
C561        H567   1.083       .  S
C562        C563   1.405       .  A
C563        C564   1.397       .  A
C563        H568   1.083       .  S
C564        C565   1.404       .  A
C564        H569   1.083       .  S
C565        C566   1.404       .  A
C566        H570   1.083       .  S
C571        C572   1.405       .  A
C571        C576   1.397       .  A
C571        H577   1.083       .  S
C572        C573   1.405       .  A
C573        C574   1.398       .  A
C573        H578   1.083       .  S
C574        C575   1.404       .  A
C574        H579   1.082       .  S
C575        C576   1.404       .  A
C576        H580   1.082       .  S
C581        C582   1.405       .  A
C581        C586   1.398       .  A
C581        H587   1.083       .  S
C582        C583   1.405       .  A
C583        C584   1.397       .  A
C583        H588   1.083       .  S
C584        C585   1.405       .  A
C584        H589   1.082       .  S
C585        C586   1.405       .  A
C586        H590   1.082       .  S
C591        C592   1.404       .  A
C591        C596   1.397       .  A
C591        H597   1.083       .  S
C592        C593   1.404       .  A
C593        C594   1.397       .  A
C593        H598   1.083       .  S
C594        C595   1.405       .  A
C594        H599   1.083       .  S
C595        C596   1.405       .  A
C596        H600   1.083       .  S
