geometry optimzed in LAMMPS
_audit_creation_date              2020-11-30 
_audit_creation_method            'lammps2cif' 
_symmetry_space_group_name_H-M    'P1' 
_symmetry_Int_Tables_number       1 
_symmetry_cell_setting            triclinic 
loop_ 
_symmetry_equiv_pos_as_xyz 
  x,y,z 
_cell_length_a                    33.20429864 
_cell_length_b                    32.78300016751102 
_cell_length_c                    25.377871729175954 
_cell_angle_alpha                 89.60590487885116 
_cell_angle_beta                  90.98901096448793 
_cell_angle_gamma                 120.31994610122129 
loop_ 
_atom_site_label 
_atom_site_type_symbol 
_atom_site_fract_x 
_atom_site_fract_y 
_atom_site_fract_z 
_atom_site_charge 
C1          C  0.65482208  0.81717738  0.25653776    -0.01800
N2          N  0.51869002  0.95515419  0.64135913    -0.26600
N3          N  0.55507068  0.95454156  0.66257343    -0.34400
C4          C  0.57996776  0.95021417  0.62384300     0.01800
C5          C  0.55776803  0.94734347  0.57606853     0.07800
C6          C  0.51920729  0.95062489  0.58882053    -0.05300
H7          H  0.61084110  0.94758138  0.63037856     0.08500
H8          H  0.49278050  0.94884138  0.56182606     0.09700
Cu9        Cu  0.56662791  0.95471619  0.74351146     0.44200
Cu10       Cu  0.46852628  0.96077710  0.68372785     0.42000
Cu11       Cu  0.47747467  0.95342817  0.82439550     0.43900
N12         N  0.56537921  0.94765340  0.82515595    -0.33900
N13         N  0.53212284  0.94615173  0.85447435    -0.28200
C14         C  0.54023766  0.93988988  0.90519617    -0.04300
C15         C  0.58071178  0.93745297  0.90801999     0.07900
C16         C  0.59561972  0.94253474  0.85658331     0.01700
H17         H  0.51824599  0.93750513  0.93739439     0.09400
H18         H  0.62610585  0.94212800  0.84311146     0.08400
N19         N  0.42757978  0.96444392  0.78706099    -0.35400
N20         N  0.42408176  0.96739183  0.73538272    -0.27600
C21         C  0.38890344  0.97554887  0.72415421    -0.02800
C22         C  0.36937310  0.97776854  0.77124614     0.05800
C23         C  0.39485472  0.97058720  0.81007181     0.03900
H24         H  0.37862474  0.97969989  0.68472544     0.09000
H25         H  0.39008888  0.97011432  0.85218704     0.07800
N26         N  0.29559831  0.19189538  0.67247238    -0.26600
N27         N  0.26529841  0.15569313  0.70111674    -0.34400
C28         C  0.22992861  0.12515038  0.66982636     0.01800
C29         C  0.23755236  0.14273239  0.61918322     0.07800
C30         C  0.27962321  0.18519398  0.62217210    -0.05300
H31         H  0.19952897  0.09349772  0.68354186     0.08500
H32         H  0.29682737  0.21007828  0.59062327     0.09700
Cu33       Cu  0.26777992  0.14958657  0.78250570     0.44200
Cu34       Cu  0.35675642  0.25019696  0.70266431     0.42000
Cu35       Cu  0.36686049  0.24397828  0.84324642     0.43900
N36         N  0.27545329  0.15666018  0.86384924    -0.33900
N37         N  0.31299510  0.19223746  0.88576006    -0.28200
C38         C  0.30781174  0.19109798  0.93809759    -0.04300
C39         C  0.26474370  0.15310393  0.95006669     0.07900
C40         C  0.24499569  0.13169914  0.90200015     0.01700
H41         H  0.33259736  0.21756054  0.96520554     0.09400
H42         H  0.21048956  0.10173820  0.89489494     0.08400
N43         N  0.41721055  0.29691787  0.79825420    -0.35400
N44         N  0.41435563  0.30081378  0.74664061    -0.27600
C45         C  0.45342690  0.34011921  0.73078925    -0.02800
C46         C  0.48179999  0.36136324  0.77491608     0.05800
C47         C  0.45760628  0.33287367  0.81659725     0.03900
H48         H  0.46078058  0.35185142  0.69033879     0.09000
H49         H  0.46856006  0.33793478  0.85760311     0.07800
C50         C  0.03685632  0.07098717  0.27014479    -0.01800
C51         C  0.90343664  0.68607877  0.23768242    -0.01800
N52         N  0.75313758  0.42544189  0.62455194    -0.26600
N53         N  0.74574322  0.45477387  0.65248198    -0.34400
C54         C  0.74927247  0.48959949  0.62133566     0.01800
C55         C  0.75943626  0.48200618  0.57117473     0.07800
C56         C  0.76160266  0.44085241  0.57441910    -0.05300
H57         H  0.74675604  0.51947244  0.63480598     0.08500
H58         H  0.77031477  0.42424793  0.54348227     0.09700
Cu59       Cu  0.73839806  0.45013166  0.73276745     0.44200
Cu60       Cu  0.75451978  0.36862293  0.65908891     0.42000
Cu61       Cu  0.76268700  0.36891306  0.80423832     0.43900
N62         N  0.74995500  0.45339419  0.81270565    -0.33900
N63         N  0.76122253  0.42569042  0.83933873    -0.28200
C64         C  0.77279791  0.44213412  0.88914031    -0.04300
C65         C  0.76839791  0.48195865  0.89345838     0.07900
C66         C  0.75369112  0.48772128  0.84438478     0.01700
H67         H  0.78511615  0.42723903  0.91909382     0.09400
H68         H  0.74865080  0.51643496  0.83168349     0.08400
N69         N  0.75724063  0.31481826  0.75593152    -0.35400
N70         N  0.75355686  0.31494278  0.70388813    -0.27600
C71         C  0.74688018  0.27382622  0.68483184    -0.02800
C72         C  0.74662208  0.24642020  0.72644287     0.05800
C73         C  0.75334208  0.27345710  0.77111936     0.03900
H74         H  0.74132653  0.26405481  0.64358047     0.09000
H75         H  0.75329377  0.26310773  0.81169354     0.07800
N76         N  0.78248786  0.86395327  0.25422321    -0.26600
N77         N  0.76749883  0.81988068  0.23983376    -0.34400
C78         C  0.72060241  0.79663879  0.23613269     0.01800
C79         C  0.70485370  0.82738323  0.24942172     0.07800
C80         C  0.74559298  0.86986984  0.26014899    -0.05300
H81         H  0.69983316  0.75977926  0.22534963     0.08500
H82         H  0.74808716  0.90237532  0.27341402     0.09700
Cu83       Cu  0.81145786  0.79225443  0.23106823     0.44200
Cu84       Cu  0.85229197  0.91342089  0.26809376     0.42000
Cu85       Cu  0.93363681  0.87098900  0.26770452     0.43900
N86         N  0.86142840  0.77157006  0.23402249    -0.33900
N87         N  0.90521250  0.79967275  0.24940132    -0.28200
C88         C  0.92714660  0.77460690  0.25128615    -0.04300
C89         C  0.89621807  0.72854535  0.23501654     0.07900
C90         C  0.85467714  0.72809021  0.22509274     0.01700
H91         H  0.96277640  0.78871935  0.26496197     0.09400
H92         H  0.82143703  0.69781323  0.21396001     0.08400
N93         N  0.95394173  0.94197600  0.27688894    -0.35400
N94         N  0.92397604  0.95723303  0.27674377    -0.27600
C95         C  0.94756870  0.00472694  0.27743021    -0.02800
C96         C  0.99529246  0.02083087  0.27761860     0.05800
C97         C  0.99753746  0.97954388  0.27783832     0.03900
H98         H  0.93038265  0.02517543  0.27467924     0.09000
H99         H  0.02882184  0.97723297  0.27533230     0.07800
C100        C  0.82121488  0.64772741  0.73464778    -0.01800
N101        N  0.95311335  0.50902038  0.34077679    -0.26600
N102        N  0.95080786  0.54465863  0.31942005    -0.34400
C103        C  0.94254612  0.56776350  0.35757539     0.01800
C104        C  0.93923933  0.54512013  0.40506525     0.07800
C105        C  0.94630877  0.50829446  0.39280942    -0.05300
H106        H  0.93871397  0.59824032  0.35091783     0.08500
H107        H  0.94559144  0.48216660  0.41966745     0.09700
Cu108      Cu  0.95672156  0.55746504  0.23888562     0.44200
Cu109      Cu  0.96429295  0.46208305  0.29866741     0.42000
Cu110      Cu  0.97817926  0.47781574  0.15846757     0.43900
N111        N  0.95875534  0.55877863  0.15712698    -0.33900
N112        N  0.96542928  0.52946474  0.12793039    -0.28200
C113        C  0.96131335  0.53799914  0.07671193    -0.04300
C114        C  0.95178225  0.57452954  0.07365411     0.07900
C115        C  0.95077955  0.58696011  0.12526191     0.01700
H116        H  0.96472583  0.51874344  0.04431985     0.09400
H117        H  0.94345746  0.61373148  0.13868979     0.08400
N118        N  0.98534455  0.42669986  0.19988064    -0.35400
N119        N  0.97885802  0.42041398  0.25119949    -0.27600
C120        C  0.98488065  0.38453467  0.26662267    -0.02800
C121        C  0.99590616  0.36734829  0.22286725     0.05800
C122        C  0.99613385  0.39506346  0.18129503     0.03900
H123        H  0.98240926  0.37273546  0.30695991     0.09000
H124        H  0.00358867  0.39240542  0.14053785     0.07800
C125        C  0.08103846  0.03237207  0.74249446    -0.01800
N126        N  0.20804863  0.29771473  0.36355100    -0.26600
N127        N  0.17249291  0.26623827  0.33476182    -0.34400
C128        C  0.13978321  0.23417610  0.36645513     0.01800
C129        C  0.15530841  0.24555819  0.41785593     0.07800
C130        C  0.19887936  0.28623428  0.41483310    -0.05300
H131        H  0.10788315  0.20345547  0.35301866     0.08500
H132        H  0.22267152  0.30529184  0.44705695     0.09700
Cu133      Cu  0.17237167  0.26433915  0.25385151     0.44200
Cu134      Cu  0.26729218  0.35240831  0.32883076     0.42000
Cu135      Cu  0.27434113  0.34301937  0.18314043     0.43900
N136        N  0.17882802  0.25783238  0.17438002    -0.33900
N137        N  0.21668408  0.28565880  0.14742656    -0.28200
C138        C  0.21013862  0.26954323  0.09738848    -0.04300
C139        C  0.16584479  0.22978658  0.09331311     0.07900
C140        C  0.14731158  0.22362921  0.14274811     0.01700
H141        H  0.23585856  0.28518300  0.06680854     0.09400
H142        H  0.11380183  0.19515663  0.15529445     0.08400
N143        N  0.32273957  0.39911916  0.22998633    -0.35400
N144        N  0.31981449  0.40280556  0.28157535    -0.27600
C145        C  0.35507767  0.44501464  0.29788853    -0.02800
C146        C  0.38150412  0.46904184  0.25461308     0.05800
C147        C  0.36013543  0.43877658  0.21245433     0.03900
H148        H  0.36042886  0.45738327  0.33820342     0.09000
H149        H  0.37013321  0.44576147  0.17157497     0.07800
C150        C  0.69905969  0.90517899  0.75050002    -0.01800
N151        N  0.43093066  0.77985241  0.34459192    -0.26600
N152        N  0.46743776  0.78154957  0.32221020    -0.34400
C153        C  0.50019887  0.79077421  0.36007462     0.01800
C154        C  0.48308949  0.79513372  0.40807950     0.07800
C155        C  0.43939237  0.78816354  0.39639536    -0.05300
H156        H  0.53423304  0.79529710  0.35302944     0.08500
H157        H  0.41541249  0.78949250  0.42371186     0.09700
Cu158      Cu  0.46963923  0.77365244  0.24031336     0.44200
Cu159      Cu  0.37045048  0.76755461  0.30603439     0.42000
Cu160      Cu  0.36298585  0.75740253  0.16870041     0.43900
N161        N  0.45982646  0.76887258  0.15795430    -0.33900
N162        N  0.42188268  0.76361351  0.13349071    -0.28200
C163        C  0.42789850  0.76500651  0.08119527    -0.04300
C164        C  0.47157237  0.77171241  0.07158925     0.07900
C165        C  0.49082970  0.77351424  0.12119492     0.01700
H166        H  0.40272016  0.76293669  0.05209730     0.09400
H167        H  0.52519934  0.77906036  0.13006544     0.08400
N168        N  0.30802721  0.75142940  0.21253181    -0.35400
N169        N  0.31118024  0.75485776  0.26438274    -0.27600
C170        C  0.27045864  0.74721743  0.28342755    -0.02800
C171        C  0.24003851  0.73870131  0.24156875     0.05800
C172        C  0.26503110  0.74170733  0.19694386     0.03900
H173        H  0.26318351  0.74689117  0.32487420     0.09000
H174        H  0.25258461  0.73577665  0.15648485     0.07800
N175        N  0.86873391  0.77635894  0.75456395    -0.26600
N176        N  0.82370103  0.76107060  0.75840170    -0.34400
C177        C  0.79970243  0.71366346  0.75325996     0.01800
C178        C  0.83108431  0.69785929  0.74619834     0.07800
C179        C  0.87452192  0.73911030  0.74718782    -0.05300
H180        H  0.76204792  0.69258207  0.75313712     0.08500
H181        H  0.90795874  0.74233660  0.73984989     0.09700
Cu182      Cu  0.79718132  0.80614965  0.76569416     0.44200
Cu183      Cu  0.92074232  0.84750577  0.75453352     0.42000
Cu184      Cu  0.88306747  0.93258503  0.76079793     0.43900
N185        N  0.78014621  0.85904833  0.76434208    -0.33900
N186        N  0.81108615  0.90468110  0.76205861    -0.28200
C187        C  0.78842282  0.92894259  0.75782604    -0.04300
C188        C  0.74047904  0.89706658  0.75699118     0.07900
C189        C  0.73705750  0.85315768  0.76177600     0.01700
H190        H  0.80631107  0.96694313  0.75462212     0.09400
H191        H  0.70521025  0.81914911  0.76170946     0.08400
N192        N  0.95292769  0.95157275  0.75472107    -0.35400
N193        N  0.96679219  0.92031923  0.75229321    -0.27600
C194        C  0.01354382  0.94340836  0.74776491    -0.02800
C195        C  0.03034944  0.99188439  0.74677592     0.05800
C196        C  0.99047532  0.99532511  0.75180001     0.03900
H197        H  0.03372647  0.92596441  0.74517517     0.09000
H198        H  0.98874934  0.02728241  0.75423400     0.07800
C199        C  0.55958363  0.80555380  0.95735398     0.19400
C200        C  0.60838315  0.82734002  0.95492947    -0.18700
C201        C  0.63123837  0.84168877  0.90666049    -0.10900
C202        C  0.60574042  0.83450354  0.85932976     0.21700
C203        C  0.55695289  0.81151297  0.86140733    -0.20300
C204        C  0.53405797  0.79728389  0.90966855    -0.11100
C205        C  0.62883086  0.84936939  0.80721405    -0.15300
C206        C  0.67192696  0.88723076  0.80175033    -0.29100
C207        C  0.53724761  0.79266761  0.01027424    -0.03400
C208        C  0.49239513  0.77971567  0.01864246    -0.39900
H209        H  0.62905990  0.83379715  0.99067771     0.12800
H210        H  0.66881510  0.85782691  0.90660666     0.12500
H211        H  0.53644010  0.80496125  0.82550612     0.11900
H212        H  0.49644467  0.77958148  0.90877289     0.12100
H213        H  0.60919278  0.82911904  0.77294511     0.14900
H214        H  0.69022848  0.90739618  0.83678612     0.13600
H215        H  0.55937787  0.79640143  0.04407703     0.11300
H216        H  0.46982267  0.77720637  0.98603499     0.13300
C217        C  0.60943646  0.85336315  0.63016877     0.19400
C218        C  0.56250881  0.84027035  0.62236152    -0.18700
C219        C  0.54015970  0.82333047  0.57355994    -0.10900
C220        C  0.56437785  0.81938950  0.53059445     0.21700
C221        C  0.61062152  0.83007771  0.53916387    -0.20300
C222        C  0.63321280  0.84755425  0.58799261    -0.11100
C223        C  0.54316609  0.80572955  0.47634725    -0.15300
C224        C  0.50505349  0.80763871  0.46122864    -0.29100
C225        C  0.63241661  0.87527144  0.68174868    -0.03400
C226        C  0.67271508  0.87913016  0.69967959    -0.39900
H227        H  0.54309570  0.84389137  0.65408036     0.12800
H228        H  0.50394290  0.81363597  0.57018302     0.12500
H229        H  0.63002578  0.82672151  0.50726680     0.11900
H230        H  0.66959554  0.85780957  0.59161722     0.12100
H231        H  0.56041811  0.79566444  0.44752788     0.14900
H232        H  0.48811697  0.81892310  0.48884064     0.13600
H233        H  0.61434259  0.88744808  0.70640874     0.11300
H234        H  0.68847834  0.86359055  0.67605827     0.13300
C235        C  0.10545049  0.09464721  0.87920150     0.19400
C236        C  0.08178942  0.08590026  0.92674059    -0.18700
C237        C  0.09886099  0.12000880  0.96667746    -0.10900
C238        C  0.14088728  0.16338844  0.96032996     0.21700
C239        C  0.16452506  0.17183001  0.91261861    -0.20300
C240        C  0.14701565  0.13802319  0.87244099    -0.11100
C241        C  0.16301189  0.19933781  0.00316661    -0.15300
C242        C  0.14217070  0.19711774  0.04884077    -0.29100
C243        C  0.08760904  0.05741739  0.83802620    -0.03400
C244        C  0.09285368  0.06840258  0.78654239    -0.39900
H245        H  0.04998684  0.05254165  0.93300307     0.12800
H246        H  0.07942736  0.11105724  0.00268495     0.12500
H247        H  0.19722910  0.20438446  0.90672502     0.11900
H248        H  0.16701513  0.14527669  0.83684396     0.12100
H249        H  0.19849718  0.22803511  0.99739545     0.14900
H250        H  0.10664164  0.16943279  0.05572513     0.13600
H251        H  0.07050434  0.02060325  0.85000778     0.11300
H252        H  0.10752569  0.10532018  0.77567852     0.13300
C253        C  0.08849513  0.12048980  0.63553175     0.19400
C254        C  0.05940027  0.12366350  0.59720392    -0.18700
C255        C  0.07841549  0.15794902  0.55764563    -0.10900
C256        C  0.12691297  0.19000079  0.55637874     0.21700
C257        C  0.15530893  0.18860666  0.59703836    -0.20300
C258        C  0.13637097  0.15393654  0.63598442    -0.11100
C259        C  0.14942763  0.22397134  0.51250348    -0.15300
C260        C  0.13069048  0.21607782  0.46370370    -0.29100
C261        C  0.06879459  0.08430797  0.67724863    -0.03400
C262        C  0.08861936  0.05840275  0.69016423    -0.39900
H263        H  0.02215202  0.09905368  0.59731097     0.12800
H264        H  0.05502921  0.15910361  0.52828797     0.12500
H265        H  0.19255602  0.21331374  0.59761032     0.11900
H266        H  0.15909457  0.15323963  0.66664275     0.12100
H267        H  0.18424641  0.25388193  0.51935672     0.14900
H268        H  0.09719230  0.18476326  0.45554389     0.13600
H269        H  0.04130713  0.08298782  0.70079159     0.11300
H270        H  0.11532945  0.06056536  0.66409160     0.13300
C271        C  0.92194416  0.59556947  0.93209620     0.19400
C272        C  0.89269030  0.56481807  0.89232566    -0.18700
C273        C  0.87926726  0.58211570  0.84904199    -0.10900
C274        C  0.89587086  0.63075160  0.84415348     0.21700
C275        C  0.92679209  0.66177703  0.88257317    -0.20300
C276        C  0.93942077  0.64439833  0.92644547    -0.11100
C277        C  0.88207362  0.64996134  0.79882973    -0.15300
C278        C  0.83769647  0.62913112  0.78081105    -0.29100
C279        C  0.93380811  0.57566870  0.97861801    -0.03400
C280        C  0.94290780  0.59582585  0.02663687    -0.39900
H281        H  0.87934034  0.52716604  0.89536921     0.12800
H282        H  0.85632845  0.55756996  0.81915260     0.12500
H283        H  0.94052524  0.69946785  0.87906711     0.11900
H284        H  0.96324018  0.66929959  0.95546277     0.12100
H285        H  0.90861992  0.68270117  0.78172876     0.14900
H286        H  0.81215050  0.59684034  0.80012093     0.13600
H287        H  0.93186029  0.54181631  0.97390696     0.11300
H288        H  0.94131793  0.62771314  0.03269192     0.13300
C289        C  0.86524623  0.60587022  0.61614640     0.19400
C290        C  0.87107878  0.56689524  0.60859156    -0.18700
C291        C  0.88770848  0.56043648  0.56112562    -0.10900
C292        C  0.89935720  0.59324807  0.51975183     0.21700
C293        C  0.89302214  0.63206992  0.52713575    -0.20300
C294        C  0.87612302  0.63840000  0.57472576    -0.11100
C295        C  0.91585674  0.58716902  0.46767255    -0.15300
C296        C  0.92756542  0.55420950  0.45790812    -0.29100
C297        C  0.84479510  0.60906323  0.66643518    -0.03400
C298        C  0.84678098  0.64855293  0.68478721    -0.39900
H299        H  0.86196461  0.54073768  0.63938108     0.12800
H300        H  0.89000819  0.52893210  0.55726300     0.12500
H301        H  0.90065000  0.65734615  0.49568630     0.11900
H302        H  0.87058606  0.66804981  0.57815974     0.12100
H303        H  0.91738118  0.61015587  0.43579982     0.14900
H304        H  0.92770832  0.53157641  0.48902718     0.13600
H305        H  0.82671556  0.57698552  0.68975905     0.11300
H306        H  0.86611801  0.68145519  0.66333488     0.13300
C307        C  0.70313472  0.02675428  0.74961749     0.19400
C308        C  0.67602307  0.04320901  0.72486648    -0.18700
C309        C  0.68916194  0.09090498  0.72769405    -0.10900
C310        C  0.72943140  0.12309222  0.75626859     0.21700
C311        C  0.75615197  0.10648264  0.78192568    -0.20300
C312        C  0.74343654  0.05881071  0.77821270    -0.11100
C313        C  0.74284396  0.17354684  0.76149394    -0.15300
C314        C  0.73581368  0.19697179  0.72208393    -0.29100
C315        C  0.68646354  0.97542677  0.74877001    -0.03400
C316        C  0.71544289  0.95799922  0.74564302    -0.39900
H317        H  0.64452081  0.01904689  0.70335960     0.12800
H318        H  0.66702404  0.10224465  0.70871464     0.12500
H319        H  0.78691906  0.13045700  0.80479330     0.11900
H320        H  0.76425808  0.04678803  0.79904202     0.12100
H321        H  0.76002668  0.19204319  0.79774811     0.14900
H322        H  0.72213504  0.17950717  0.68437806     0.13600
H323        H  0.64929849  0.95173837  0.75216785     0.11300
H324        H  0.75206660  0.98342157  0.74108685     0.13300
C325        C  0.01948909  0.68398659  0.22443519     0.19400
C326        C  0.03922869  0.66342236  0.25643410    -0.18700
C327        C  0.08571981  0.67555695  0.25042287    -0.10900
C328        C  0.11334316  0.70820829  0.21166216     0.21700
C329        C  0.09300147  0.72733675  0.17817186    -0.20300
C330        C  0.04657774  0.71571474  0.18477949    -0.11100
C331        C  0.16309832  0.72215640  0.20509048    -0.15300
C332        C  0.19060025  0.72550183  0.24635990    -0.29100
C333        C  0.97013953  0.67033101  0.23228324    -0.03400
C334        C  0.95453959  0.70110139  0.22821751    -0.39900
H335        H  0.01881302  0.63843805  0.28676170     0.12800
H336        H  0.09978583  0.65891496  0.27576374     0.12500
H337        H  0.11331172  0.75189711  0.14742345     0.11900
H338        H  0.03173114  0.73099084  0.15849216     0.12100
H339        H  0.17781969  0.73187795  0.16600600     0.14900
H340        H  0.17673287  0.71920386  0.28591095     0.13600
H341        H  0.94624883  0.63429992  0.24471203     0.11300
H342        H  0.97907777  0.73744298  0.21766010     0.13300
C343        C  0.85669599  0.61947013  0.10379241     0.19400
C344        C  0.85349376  0.63192341  0.05158623    -0.18700
C345        C  0.83478246  0.59755365  0.01195892    -0.10900
C346        C  0.81904762  0.54982727  0.02380297     0.21700
C347        C  0.82279155  0.53745878  0.07583268    -0.20300
C348        C  0.84119017  0.57173689  0.11549100    -0.11100
C349        C  0.80150194  0.51275112  0.98237521    -0.15300
C350        C  0.78175866  0.51602074  0.93716850    -0.29100
C351        C  0.87991465  0.65743838  0.14406567    -0.03400
C352        C  0.87371668  0.64918179  0.19612529    -0.39900
H353        H  0.86619576  0.66850559  0.04127186     0.12800
H354        H  0.83436914  0.60887371  0.97191585     0.12500
H355        H  0.81193704  0.50118218  0.08573518     0.11900
H356        H  0.84490866  0.56076364  0.15466260     0.12100
H357        H  0.80501735  0.48198191  0.98944387     0.14900
H358        H  0.77624862  0.54561736  0.93075480     0.13600
H359        H  0.90413047  0.69307295  0.13072778     0.11300
H360        H  0.84802888  0.61410994  0.20944049     0.13300
C361        C  0.79654975  0.54217601  0.43530345     0.19400
C362        C  0.82180470  0.53835328  0.39378143    -0.18700
C363        C  0.83831405  0.57169266  0.35335055    -0.10900
C364        C  0.82940267  0.60921491  0.35334188     0.21700
C365        C  0.80217806  0.61190142  0.39308719    -0.20300
C366        C  0.78608145  0.57888383  0.43400712    -0.11100
C367        C  0.84536020  0.64320709  0.30941059    -0.15300
C368        C  0.88933022  0.66316818  0.29187296    -0.29100
C369        C  0.78210750  0.50736177  0.47897132    -0.03400
C370        C  0.77012669  0.51485213  0.52668587    -0.39900
H371        H  0.82960416  0.51001344  0.39314735     0.12800
H372        H  0.85741922  0.56779417  0.32151284     0.12500
H373        H  0.79371566  0.63977971  0.39265561     0.11900
H374        H  0.76503170  0.58210730  0.46384233     0.12100
H375        H  0.81951417  0.64832065  0.28844463     0.14900
H376        H  0.91458280  0.65891758  0.31556013     0.13600
H377        H  0.78394537  0.47565402  0.47240502     0.11300
H378        H  0.77009801  0.54720305  0.53501706     0.13300
C379        C  0.03636227  0.19079570  0.26271923     0.19400
C380        C  0.06309024  0.23286057  0.23470792    -0.18700
C381        C  0.05066287  0.26769018  0.23280383    -0.10900
C382        C  0.01133168  0.26147810  0.25970484     0.21700
C383        C  0.98515797  0.21997302  0.28894922    -0.20300
C384        C  0.99728973  0.18478559  0.29023197    -0.11100
C385        C  0.99845630  0.29876889  0.26045692    -0.15300
C386        C  0.00740080  0.32931371  0.22051198    -0.29100
C387        C  0.05156412  0.15515344  0.26423116    -0.03400
C388        C  0.02181020  0.10834134  0.26952941    -0.39900
H389        H  0.09379112  0.23893501  0.21418940     0.12800
H390        H  0.07265059  0.29991861  0.21141391     0.12500
H391        H  0.95522831  0.21478081  0.31088876     0.11900
H392        H  0.97675538  0.15363167  0.31386456     0.12100
H393        H  0.97979910  0.30013542  0.29450070     0.14900
H394        H  0.02279645  0.32602088  0.18457073     0.13600
H395        H  0.08840081  0.16828953  0.25961600     0.11300
H396        H  0.98536856  0.09714374  0.27313188     0.13300
C397        C  0.68770546  0.55874287  0.75543568     0.19400
C398        C  0.66183616  0.53709608  0.80069778    -0.18700
C399        C  0.61690744  0.49767186  0.79674942    -0.10900
C400        C  0.59670009  0.47848572  0.74709902     0.21700
C401        C  0.62183560  0.50123463  0.70177433    -0.20300
C402        C  0.66670617  0.54088493  0.70571245    -0.11100
C403        C  0.54958056  0.43538381  0.74087615    -0.15300
C404        C  0.52841336  0.40419736  0.77997341    -0.29100
C405        C  0.73658503  0.59872903  0.76232243    -0.03400
C406        C  0.76900019  0.61343743  0.72443593    -0.39900
H407        H  0.67671817  0.55034290  0.83948581     0.12800
H408        H  0.59835588  0.48283951  0.83286214     0.12500
H409        H  0.60690169  0.48792680  0.66302816     0.11900
H410        H  0.68435974  0.55715368  0.66955513     0.12100
H411        H  0.53237845  0.42849335  0.70248863     0.14900
H412        H  0.54555432  0.40959772  0.81810586     0.13600
H413        H  0.74767337  0.61389961  0.80151863     0.11300
H414        H  0.75862709  0.59749930  0.68564695     0.13300
C415        C  0.17588287  0.10772742  0.06328992     0.19400
C416        C  0.12834811  0.07379253  0.06770984    -0.18700
C417        C  0.10356169  0.07163533  0.11271215    -0.10900
C418        C  0.12617586  0.10310473  0.15494394     0.21700
C419        C  0.17396872  0.13597455  0.15119640    -0.20300
C420        C  0.19853723  0.13850386  0.10613631    -0.11100
C421        C  0.10217528  0.10400152  0.20351014    -0.15300
C422        C  0.05836076  0.07111709  0.21698804    -0.29100
C423        C  0.19915856  0.11186762  0.01212734    -0.03400
C424        C  0.24411870  0.14371824  0.00288468    -0.39900
H425        H  0.10987176  0.04964721  0.03546984     0.12800
H426        H  0.06675347  0.04589054  0.11330908     0.12500
H427        H  0.19241701  0.16064753  0.18305172     0.11900
H428        H  0.23485707  0.16554053  0.10541132     0.12100
H429        H  0.12322071  0.13214340  0.23117703     0.14900
H430        H  0.03804014  0.04154754  0.19064172     0.13600
H431        H  0.17751957  0.08965554  0.97979633     0.11300
H432        H  0.26696077  0.16629647  0.03401156     0.13300
C433        C  0.10128962  0.09960779  0.40706422     0.19400
C434        C  0.08909902  0.08173959  0.45826866    -0.18700
C435        C  0.12339277  0.09471437  0.49781629    -0.10900
C436        C  0.17072157  0.12678232  0.48716582     0.21700
C437        C  0.18260484  0.14551804  0.43617913    -0.20300
C438        C  0.14843999  0.13192985  0.39648647    -0.11100
C439        C  0.20798962  0.14434355  0.52886655    -0.15300
C440        C  0.20371112  0.12175739  0.57474778    -0.29100
C441        C  0.06429379  0.08564592  0.36571842    -0.03400
C442        C  0.07227168  0.08137794  0.31480646    -0.39900
H443        H  0.05293514  0.05757594  0.46766671     0.12800
H444        H  0.11224920  0.08073593  0.53693765     0.12500
H445        H  0.21847134  0.17110749  0.42709012     0.11900
H446        H  0.15886426  0.14782204  0.35791437     0.12100
H447        H  0.23956217  0.17789275  0.52197020     0.14900
H448        H  0.17307296  0.08755894  0.58172650     0.13600
H449        H  0.02990099  0.07831717  0.37721048     0.11300
H450        H  0.10588498  0.08558857  0.30511018     0.13300
C451        C  0.26616676  0.00087146  0.75112399     0.19400
C452        C  0.23588525  0.99521756  0.70881773    -0.18700
C453        C  0.19859806  0.00318182  0.71538737    -0.10900
C454        C  0.19081344  0.01725228  0.76463104     0.21700
C455        C  0.22139380  0.02354822  0.80672003    -0.20300
C456        C  0.25854397  0.01544035  0.80024388    -0.11100
C457        C  0.15433080  0.03024123  0.77232176    -0.15300
C458        C  0.11484202  0.01314576  0.74255279    -0.29100
C459        C  0.30591886  0.99275471  0.74182441    -0.03400
C460        C  0.33017628  0.98610752  0.78071015    -0.39900
H461        H  0.24128855  0.98488844  0.67031593     0.12800
H462        H  0.17705602  0.99983522  0.68136454     0.12500
H463        H  0.21682076  0.03532493  0.84475876     0.11900
H464        H  0.28165640  0.02190062  0.83361104     0.12100
H465        H  0.16191357  0.05640582  0.80258941     0.14900
H466        H  0.10819575  0.98675856  0.71277057     0.13600
H467        H  0.31471235  0.99103716  0.70120151     0.11300
H468        H  0.32089385  0.98574603  0.82149049     0.13300
C469        C  0.54126802  0.69551240  0.27892500     0.19400
C470        C  0.54548927  0.66096215  0.25100331    -0.18700
C471        C  0.51129447  0.61315118  0.25502055    -0.10900
C472        C  0.47226231  0.59901406  0.28708527     0.21700
C473        C  0.46879511  0.63347092  0.31585695    -0.20300
C474        C  0.50259075  0.68124018  0.31124831    -0.11100
C475        C  0.43447529  0.54887341  0.29143067    -0.15300
C476        C  0.42207367  0.51757871  0.25171198    -0.29100
C477        C  0.57513260  0.74672529  0.27286219    -0.03400
C478        C  0.62099422  0.76426582  0.26449409    -0.41900
H479        H  0.57448824  0.67087264  0.22499410     0.12800
H480        H  0.51560239  0.58741838  0.23316339     0.12500
H481        H  0.43924289  0.62349806  0.34106068     0.11900
H482        H  0.49852403  0.70708642  0.33311786     0.12100
H483        H  0.41389340  0.53853661  0.32697976     0.14900
H484        H  0.44019528  0.52850475  0.21453242     0.13600
H485        H  0.56208707  0.77102621  0.27618843     0.11300
H486        H  0.63373015  0.73970720  0.26464848     0.13300
C487        C  0.64343471  0.88989333  0.14013906     0.19400
C488        C  0.67273457  0.91560949  0.09856879    -0.18700
C489        C  0.65474975  0.92671707  0.05388183    -0.10900
C490        C  0.60708567  0.91282997  0.05043807     0.21700
C491        C  0.57854410  0.88934720  0.09348132    -0.20300
C492        C  0.59640428  0.87773575  0.13770305    -0.11100
C493        C  0.58567901  0.92230436  0.00328052    -0.15300
C494        C  0.60405193  0.93072200  0.95477077    -0.29100
C495        C  0.66229532  0.87657241  0.18633542    -0.03400
C496        C  0.63904907  0.83276181  0.20702188    -0.39900
H497        H  0.70937248  0.92625339  0.10023372     0.12800
H498        H  0.67839282  0.94640576  0.02254306     0.12500
H499        H  0.54199399  0.87908735  0.09246315     0.11900
H500        H  0.57352705  0.85943757  0.17022605     0.12100
H501        H  0.55205366  0.91967163  0.00836582     0.14900
H502        H  0.63642609  0.93115983  0.94813922     0.13600
H503        H  0.69585369  0.90274940  0.20277047     0.11300
H504        H  0.60697837  0.80687735  0.18712416     0.13300
C505        C  0.61656147  0.92417998  0.45787644     0.19400
C506        C  0.65346308  0.91516555  0.45279903    -0.18700
C507        C  0.66022562  0.89781998  0.40547035    -0.10900
C508        C  0.63055625  0.88988412  0.36167900     0.21700
C509        C  0.59568183  0.90179060  0.36566896    -0.20300
C510        C  0.58856944  0.91855527  0.41301410    -0.11100
C511        C  0.63475242  0.86976642  0.31104035    -0.15300
C512        C  0.65364790  0.84185591  0.30714183    -0.29100
C513        C  0.60761048  0.93756603  0.51079803    -0.03400
C514        C  0.56846237  0.93814190  0.52260063    -0.39900
H515        H  0.67639284  0.92025487  0.48610716     0.12800
H516        H  0.68874882  0.89090854  0.40342247     0.12500
H517        H  0.57291397  0.89694212  0.33225847     0.11900
H518        H  0.56079941  0.92654827  0.41372699     0.12100
H519        H  0.61830023  0.87536692  0.27666645     0.14900
H520        H  0.66658534  0.83332068  0.34264168     0.13600
H521        H  0.63319691  0.94480044  0.54196721     0.11300
H522        H  0.54179973  0.93023403  0.49283208     0.13300
loop_ 
_geom_bond_atom_site_label_1 
_geom_bond_atom_site_label_2 
_geom_bond_distance 
_geom_bond_site_symmetry_2 
_ccdc_geom_bond_type 
C1           C79   1.534       .  S
C1          C478   1.532       .  S
C1          C496   1.534       .  S
C1          C512   1.534       .  S
N2            N3   1.323       .  A
N2            C6   1.344       .  A
N2          Cu10   2.083       .  S
N3            C4   1.348       .  A
N3           Cu9   2.083       .  S
C4            C5   1.387       .  A
C4            H7   1.081       .  S
C5            C6   1.382       .  A
C5          C514   1.479       .  S
C6            H8   1.082       .  S
Cu9          N12   2.082       .  S
Cu10         N20   2.083       .  S
Cu11         N13   2.078       .  S
Cu11         N19   2.078       .  S
N12          N13   1.322       .  A
N12          C16   1.347       .  A
N13          C14   1.346       .  A
C14          C15   1.387       .  A
C14          H17   1.081       .  S
C15          C16   1.383       .  A
C15         C494   1.481       .  S
C16          H18   1.080       .  S
N19          N20   1.322       .  A
N19          C23   1.344       .  A
N20          C21   1.349       .  A
C21          C22   1.389       .  A
C21          H24   1.081       .  S
C22          C23   1.382       .  A
C22         C460   1.482       .  S
C23          H25   1.082       .  S
N26          N27   1.326       .  A
N26          C30   1.350       .  A
N26         Cu34   2.100       .  S
N27          C28   1.343       .  A
N27         Cu33   2.078       .  S
C28          C29   1.379       .  A
C28          H31   1.080       .  S
C29          C30   1.389       .  A
C29         C440   1.481       .  S
C30          H32   1.081       .  S
Cu33         N36   2.076       .  S
Cu34         N44   2.099       .  S
Cu35         N37   2.054       .  S
Cu35         N43   2.054       .  S
N36          N37   1.319       .  A
N36          C40   1.348       .  A
N37          C38   1.340       .  A
C38          C39   1.378       .  A
C38          H41   1.082       .  S
C39          C40   1.389       .  A
C39         C424   1.474   1_556  S
C40          H42   1.081       .  S
N43          N44   1.322       .  A
N43          C47   1.340       .  A
N44          C45   1.352       .  A
C45          C46   1.392       .  A
C45          H48   1.082       .  S
C46          C47   1.377       .  A
C46         C404   1.478       .  S
C47          H49   1.082       .  S
C50          C96   1.536   1_455  S
C50         C388   1.538       .  S
C50         C422   1.536       .  S
C50         C442   1.529       .  S
C51          C89   1.528       .  S
C51         C334   1.532       .  S
C51         C352   1.525       .  S
C51         C368   1.526       .  S
N52          N53   1.320       .  A
N52          C56   1.346       .  A
N52         Cu60   2.074       .  S
N53          C54   1.341       .  A
N53         Cu59   2.052       .  S
C54          C55   1.379       .  A
C54          H57   1.082       .  S
C55          C56   1.389       .  A
C55         C370   1.474       .  S
C56          H58   1.081       .  S
Cu59         N62   2.052       .  S
Cu60         N70   2.075       .  S
Cu61         N63   2.092       .  S
Cu61         N69   2.093       .  S
N62          N63   1.322       .  A
N62          C66   1.340       .  A
N63          C64   1.349       .  A
C64          C65   1.390       .  A
C64          H67   1.081       .  S
C65          C66   1.376       .  A
C65         C350   1.474       .  S
C66          H68   1.082       .  S
N69          N70   1.324       .  A
N69          C73   1.350       .  A
N70          C71   1.343       .  A
C71          C72   1.379       .  A
C71          H74   1.082       .  S
C72          C73   1.388       .  A
C72         C314   1.477       .  S
C73          H75   1.082       .  S
N76          N77   1.320       .  A
N76          C80   1.345       .  A
N76         Cu84   2.076       .  S
N77          C78   1.346       .  A
N77         Cu83   2.085       .  S
C78          C79   1.395       .  A
C78          H81   1.080       .  S
C79          C80   1.391       .  A
C80          H82   1.082       .  S
Cu83         N86   2.086       .  S
Cu84         N94   2.076       .  S
Cu85         N87   2.084       .  S
Cu85         N93   2.084       .  S
N86          N87   1.322       .  A
N86          C90   1.347       .  A
N87          C88   1.346       .  A
C88          C89   1.391       .  A
C88          H91   1.081       .  S
C89          C90   1.391       .  A
C90          H92   1.082       .  S
N93          N94   1.320       .  A
N93          C97   1.346       .  A
N94          C95   1.344   1_565  A
C95          C96   1.395       .  A
C95          H98   1.079       .  S
C96          C97   1.393   1_545  A
C97          H99   1.082   1_655  S
C100        C178   1.534       .  S
C100        C278   1.532       .  S
C100        C298   1.528       .  S
C100        C406   1.535       .  S
N101        N102   1.321       .  A
N101        C105   1.342       .  A
N101       Cu109   2.064       .  S
N102        C103   1.347       .  A
N102       Cu108   2.076       .  S
C103        C104   1.388       .  A
C103        H106   1.081       .  S
C104        C105   1.380       .  A
C104        C296   1.476       .  S
C105        H107   1.082       .  S
Cu108       N111   2.077       .  S
Cu109       N119   2.064       .  S
Cu110       N112   2.084       .  S
Cu110       N118   2.083       .  S
N111        N112   1.324       .  A
N111        C115   1.344       .  A
N112        C113   1.347       .  A
C113        C114   1.386       .  A
C113        H116   1.082       .  S
C114        C115   1.380       .  A
C114        C280   1.477       .  S
C115        H117   1.081       .  S
N118        N119   1.321       .  A
N118        C122   1.347       .  A
N119        C120   1.344       .  A
C120        C121   1.384       .  A
C120        H123   1.082       .  S
C121        C122   1.385       .  A
C121        C386   1.479   1_655  S
C122        H124   1.082   1_655  S
C125        C195   1.535   1_545  S
C125        C244   1.528       .  S
C125        C262   1.528       .  S
C125        C458   1.540       .  S
N126        N127   1.320       .  A
N126        C130   1.349       .  A
N126       Cu134   2.083       .  S
N127        C128   1.341       .  A
N127       Cu133   2.055       .  S
C128        C129   1.377       .  A
C128        H131   1.081       .  S
C129        C130   1.390       .  A
C129        C260   1.475       .  S
C130        H132   1.081       .  S
Cu133       N136   2.056       .  S
Cu134       N144   2.084       .  S
Cu135       N137   2.086       .  S
Cu135       N143   2.088       .  S
N136        N137   1.320       .  A
N136        C140   1.340       .  A
N137        C138   1.350       .  A
C138        C139   1.391       .  A
C138        H141   1.082       .  S
C139        C140   1.375       .  A
C139        C242   1.475       .  S
C140        H142   1.082       .  S
N143        N144   1.325       .  A
N143        C147   1.346       .  A
N144        C145   1.346       .  A
C145        C146   1.386       .  A
C145        H148   1.081       .  S
C146        C147   1.382       .  A
C146        C476   1.480       .  S
C147        H149   1.082       .  S
C150        C188   1.533       .  S
C150        C206   1.531       .  S
C150        C226   1.543       .  S
C150        C316   1.536       .  S
N151        N152   1.323       .  A
N151        C155   1.340       .  A
N151       Cu159   2.067       .  S
N152        C153   1.354       .  A
N152       Cu158   2.103       .  S
C153        C154   1.391       .  A
C153        H156   1.081       .  S
C154        C155   1.377       .  A
C154        C224   1.480       .  S
C155        H157   1.082       .  S
Cu158       N161   2.104       .  S
Cu159       N169   2.067       .  S
Cu160       N162   2.078       .  S
Cu160       N168   2.077       .  S
N161        N162   1.326       .  A
N161        C165   1.351       .  A
N162        C163   1.343       .  A
C163        C164   1.379       .  A
C163        H166   1.082       .  S
C164        C165   1.390       .  A
C164        C208   1.482       .  S
C165        H167   1.081       .  S
N168        N169   1.319       .  A
N168        C172   1.349       .  A
N169        C170   1.343       .  A
C170        C171   1.382       .  A
C170        H173   1.082       .  S
C171        C172   1.389       .  A
C171        C332   1.478       .  S
C172        H174   1.082       .  S
N175        N176   1.321       .  A
N175        C179   1.343       .  A
N175       Cu183   2.087       .  S
N176        C177   1.348       .  A
N176       Cu182   2.078       .  S
C177        C178   1.393       .  A
C177        H180   1.081       .  S
C178        C179   1.393       .  A
C179        H181   1.080       .  S
Cu182       N185   2.078       .  S
Cu183       N193   2.087       .  S
Cu184       N186   2.084       .  S
Cu184       N192   2.085       .  S
N185        N186   1.321       .  A
N185        C189   1.344       .  A
N186        C187   1.346       .  A
C187        C188   1.395       .  A
C187        H190   1.079       .  S
C188        C189   1.390       .  A
C189        H191   1.082       .  S
N192        N193   1.320       .  A
N192        C196   1.347       .  A
N193        C194   1.347   1_655  A
C194        C195   1.394       .  A
C194        H197   1.081       .  S
C195        C196   1.392   1_455  A
C196        H198   1.080   1_565  S
C199        C200   1.405       .  A
C199        C204   1.412       .  A
C199        C207   1.497   1_556  S
C200        C201   1.401       .  A
C200        H209   1.083       .  S
C201        C202   1.408       .  A
C201        H210   1.082       .  S
C202        C203   1.402       .  A
C202        C205   1.491       .  S
C203        C204   1.401       .  A
C203        H211   1.083       .  S
C204        H212   1.079       .  S
C205        H213   1.083       .  S
C205        C206   1.349       .  D
C206        H214   1.087       .  S
C207        H215   1.086       .  S
C207        C208   1.347       .  D
C208        H216   1.082   1_554  S
C217        C218   1.402       .  A
C217        C222   1.410       .  A
C217        C225   1.496       .  S
C218        C219   1.398       .  A
C218        H227   1.084       .  S
C219        C220   1.410       .  A
C219        H228   1.080       .  S
C220        C221   1.405       .  A
C220        C223   1.499       .  S
C221        C222   1.404       .  A
C221        H229   1.083       .  S
C222        H230   1.080       .  S
C223        H231   1.087       .  S
C223        C224   1.347       .  D
C224        H232   1.082       .  S
C225        H233   1.081       .  S
C225        C226   1.350       .  D
C226        H234   1.085       .  S
C235        C236   1.398       .  A
C235        C240   1.407       .  A
C235        C243   1.483       .  S
C236        C237   1.398       .  A
C236        H245   1.083       .  S
C237        C238   1.413       .  A
C237        H246   1.078   1_556  S
C238        C239   1.403       .  A
C238        C241   1.492   1_556  S
C239        C240   1.397       .  A
C239        H247   1.083       .  S
C240        H248   1.083       .  S
C241        H249   1.086   1_554  S
C241        C242   1.343       .  D
C242        H250   1.082       .  S
C243        H251   1.086       .  S
C243        C244   1.344       .  D
C244        H252   1.088       .  S
C253        C254   1.399       .  A
C253        C258   1.403       .  A
C253        C261   1.476       .  S
C254        C255   1.400       .  A
C254        H263   1.083       .  S
C255        C256   1.411       .  A
C255        H264   1.081       .  S
C256        C257   1.402       .  A
C256        C259   1.487       .  S
C257        C258   1.396       .  A
C257        H265   1.084       .  S
C258        H266   1.083       .  S
C259        H267   1.086       .  S
C259        C260   1.343       .  D
C260        H268   1.084       .  S
C261        H269   1.082       .  S
C261        C262   1.347       .  D
C262        H270   1.089       .  S
C271        C272   1.404       .  A
C271        C276   1.408       .  A
C271        C279   1.486       .  S
C272        C273   1.399       .  A
C272        H281   1.083       .  S
C273        C274   1.405       .  A
C273        H282   1.083       .  S
C274        C275   1.401       .  A
C274        C277   1.481       .  S
C275        C276   1.399       .  A
C275        H283   1.083       .  S
C276        H284   1.082       .  S
C277        H285   1.081       .  S
C277        C278   1.346       .  D
C278        H286   1.087       .  S
C279        H287   1.086       .  S
C279        C280   1.345   1_556  D
C280        H288   1.085       .  S
C289        C290   1.400       .  A
C289        C294   1.408       .  A
C289        C297   1.485       .  S
C290        C291   1.395       .  A
C290        H299   1.084       .  S
C291        C292   1.410       .  A
C291        H300   1.079       .  S
C292        C293   1.405       .  A
C292        C295   1.492       .  S
C293        C294   1.400       .  A
C293        H301   1.083       .  S
C294        H302   1.081       .  S
C295        H303   1.086       .  S
C295        C296   1.346       .  D
C296        H304   1.081       .  S
C297        H305   1.088       .  S
C297        C298   1.348       .  D
C298        H306   1.085       .  S
C307        C308   1.401       .  A
C307        C312   1.407       .  A
C307        C315   1.483   1_545  S
C308        C309   1.397       .  A
C308        H317   1.081       .  S
C309        C310   1.407       .  A
C309        H318   1.082       .  S
C310        C311   1.404       .  A
C310        C313   1.486       .  S
C311        C312   1.401       .  A
C311        H319   1.083       .  S
C312        H320   1.083       .  S
C313        H321   1.086       .  S
C313        C314   1.344       .  D
C314        H322   1.086       .  S
C315        H323   1.081       .  S
C315        C316   1.348       .  D
C316        H324   1.080       .  S
C325        C326   1.401       .  A
C325        C330   1.406       .  A
C325        C333   1.481   1_455  S
C326        C327   1.397       .  A
C326        H335   1.082       .  S
C327        C328   1.407       .  A
C327        H336   1.082       .  S
C328        C329   1.404       .  A
C328        C331   1.487       .  S
C329        C330   1.402       .  A
C329        H337   1.083       .  S
C330        H338   1.083       .  S
C331        H339   1.086       .  S
C331        C332   1.345       .  D
C332        H340   1.086       .  S
C333        H341   1.087       .  S
C333        C334   1.349       .  D
C334        H342   1.085       .  S
C343        C344   1.402       .  A
C343        C348   1.410       .  A
C343        C351   1.487       .  S
C344        C345   1.398       .  A
C344        H353   1.083       .  S
C345        C346   1.409       .  A
C345        H354   1.082   1_554  S
C346        C347   1.400       .  A
C346        C349   1.484   1_554  S
C347        C348   1.396       .  A
C347        H355   1.083       .  S
C348        H356   1.081       .  S
C349        H357   1.086       .  S
C349        C350   1.342       .  D
C350        H358   1.085       .  S
C351        H359   1.087       .  S
C351        C352   1.345       .  D
C352        H360   1.085       .  S
C361        C362   1.403       .  A
C361        C366   1.411       .  A
C361        C369   1.486       .  S
C362        C363   1.395       .  A
C362        H371   1.083       .  S
C363        C364   1.403       .  A
C363        H372   1.083       .  S
C364        C365   1.398       .  A
C364        C367   1.474       .  S
C365        C366   1.398       .  A
C365        H373   1.083       .  S
C366        H374   1.080       .  S
C367        H375   1.084       .  S
C367        C368   1.346       .  D
C368        H376   1.088       .  S
C369        H377   1.086       .  S
C369        C370   1.343       .  D
C370        H378   1.083       .  S
C379        C380   1.403       .  A
C379        C384   1.407   1_455  A
C379        C387   1.489       .  S
C380        C381   1.397       .  A
C380        H389   1.078       .  S
C381        C382   1.405       .  A
C381        H390   1.082       .  S
C382        C383   1.404   1_455  A
C382        C385   1.485   1_455  S
C383        C384   1.401       .  A
C383        H391   1.083       .  S
C384        H392   1.082       .  S
C385        H393   1.086       .  S
C385        C386   1.347   1_655  D
C386        H394   1.085       .  S
C387        H395   1.081       .  S
C387        C388   1.349       .  D
C388        H396   1.078   1_455  S
C397        C398   1.403       .  A
C397        C402   1.410       .  A
C397        C405   1.493       .  S
C398        C399   1.399       .  A
C398        H407   1.084       .  S
C399        C400   1.410       .  A
C399        H408   1.080       .  S
C400        C401   1.403       .  A
C400        C403   1.494       .  S
C401        C402   1.400       .  A
C401        H409   1.083       .  S
C402        H410   1.080       .  S
C403        H411   1.086       .  S
C403        C404   1.345       .  D
C404        H412   1.083       .  S
C405        H413   1.087       .  S
C405        C406   1.349       .  D
C406        H414   1.084       .  S
C415        C416   1.405       .  A
C415        C420   1.410       .  A
C415        C423   1.493       .  S
C416        C417   1.400       .  A
C416        H425   1.083       .  S
C417        C418   1.408       .  A
C417        H426   1.079       .  S
C418        C419   1.402       .  A
C418        C421   1.488       .  S
C419        C420   1.394       .  A
C419        H427   1.084       .  S
C420        H428   1.078       .  S
C421        H429   1.083       .  S
C421        C422   1.351       .  D
C422        H430   1.084       .  S
C423        H431   1.086   1_554  S
C423        C424   1.345       .  D
C424        H432   1.081       .  S
C433        C434   1.401       .  A
C433        C438   1.408       .  A
C433        C441   1.488       .  S
C434        C435   1.401       .  A
C434        H443   1.083       .  S
C435        C436   1.411       .  A
C435        H444   1.081       .  S
C436        C437   1.403       .  A
C436        C439   1.492       .  S
C437        C438   1.399       .  A
C437        H445   1.083       .  S
C438        H446   1.083       .  S
C439        H447   1.086       .  S
C439        C440   1.346       .  D
C440        H448   1.084       .  S
C441        H449   1.086       .  S
C441        C442   1.346       .  D
C442        H450   1.086       .  S
C451        C452   1.405   1_545  A
C451        C456   1.410       .  A
C451        C459   1.495   1_545  S
C452        C453   1.401   1_565  A
C452        H461   1.083       .  S
C453        C454   1.407       .  A
C453        H462   1.082   1_545  S
C454        C455   1.403       .  A
C454        C457   1.489       .  S
C455        C456   1.399       .  A
C455        H463   1.083       .  S
C456        H464   1.080       .  S
C457        H465   1.083       .  S
C457        C458   1.354       .  D
C458        H466   1.086   1_545  S
C459        H467   1.086       .  S
C459        C460   1.348       .  D
C460        H468   1.083       .  S
C469        C470   1.407       .  A
C469        C474   1.402       .  A
C469        C477   1.484       .  S
C470        C471   1.400       .  A
C470        H479   1.082       .  S
C471        C472   1.408       .  A
C471        H480   1.082       .  S
C472        C473   1.403       .  A
C472        C475   1.486       .  S
C473        C474   1.398       .  A
C473        H481   1.083       .  S
C474        H482   1.081       .  S
C475        H483   1.086       .  S
C475        C476   1.346       .  D
C476        H484   1.085       .  S
C477        H485   1.086       .  S
C477        C478   1.349       .  D
C478        H486   1.082       .  S
C487        C488   1.402       .  A
C487        C492   1.404       .  A
C487        C495   1.484       .  S
C488        C489   1.402       .  A
C488        H497   1.083       .  S
C489        C490   1.410       .  A
C489        H498   1.081       .  S
C490        C491   1.404       .  A
C490        C493   1.491       .  S
C491        C492   1.398       .  A
C491        H499   1.083       .  S
C492        H500   1.083       .  S
C493        H501   1.085       .  S
C493        C494   1.347   1_554  D
C494        H502   1.084       .  S
C495        H503   1.084       .  S
C495        C496   1.349       .  D
C496        H504   1.088       .  S
C505        C506   1.406       .  A
C505        C510   1.410       .  A
C505        C513   1.496       .  S
C506        C507   1.401       .  A
C506        H515   1.083       .  S
C507        C508   1.407       .  A
C507        H516   1.081       .  S
C508        C509   1.402       .  A
C508        C511   1.489       .  S
C509        C510   1.397       .  A
C509        H517   1.084       .  S
C510        H518   1.079       .  S
C511        H519   1.084       .  S
C511        C512   1.350       .  D
C512        H520   1.086       .  S
C513        H521   1.086       .  S
C513        C514   1.348       .  D
C514        H522   1.081       .  S
