geometry optimzed in LAMMPS
_audit_creation_date              2020-11-30 
_audit_creation_method            'lammps2cif' 
_symmetry_space_group_name_H-M    'P1' 
_symmetry_Int_Tables_number       1 
_symmetry_cell_setting            triclinic 
loop_ 
_symmetry_equiv_pos_as_xyz 
  x,y,z 
_cell_length_a                    34.03513173 
_cell_length_b                    41.66356855829871 
_cell_length_c                    31.975129532934893 
_cell_angle_alpha                 90.28458810456699 
_cell_angle_beta                  90.65108701542033 
_cell_angle_gamma                 92.92633990438054 
loop_ 
_atom_site_label 
_atom_site_type_symbol 
_atom_site_fract_x 
_atom_site_fract_y 
_atom_site_fract_z 
_atom_site_charge 
N1          N  0.80211914  0.44536352  0.85127576    -0.26100
N2          N  0.82667724  0.46286200  0.87535819    -0.34000
C3          C  0.84706625  0.44327977  0.89966695     0.02200
C4          C  0.83479211  0.41189976  0.89005706     0.08200
C5          C  0.80626755  0.41415013  0.85924968    -0.04900
H6          H  0.86964802  0.45133835  0.92195261     0.08900
H7          H  0.78962512  0.39460695  0.84378113     0.10100
Cu8        Cu  0.83078990  0.01229537  0.87304980     0.44200
Cu9        Cu  0.76580325  0.46480730  0.80750822     0.42000
Cu10       Cu  0.76167307  0.05092941  0.80270123     0.43900
N11         N  0.82506608  0.06116434  0.86911798    -0.33500
N12         N  0.79875216  0.07518618  0.84559729    -0.27800
C13         C  0.80156018  0.10701294  0.85313853    -0.03900
C14         C  0.83133580  0.11311029  0.88231998     0.08400
C15         C  0.84564199  0.08361179  0.89166864     0.02100
H16         H  0.78358162  0.12440318  0.83818944     0.09800
H17         H  0.86856015  0.07867510  0.91413286     0.08900
N18         N  0.73655968  0.01999090  0.75764827    -0.35000
N19         N  0.73885007  0.48846211  0.75976140    -0.27100
C20         C  0.72605389  0.47508650  0.72358856    -0.02400
C21         C  0.71488770  0.49925572  0.69740679     0.06200
C22         C  0.72171214  0.02749760  0.71990762     0.04300
H23         H  0.72717819  0.44982467  0.71597381     0.09400
H24         H  0.71923169  0.05170983  0.70850639     0.08300
C25         C  0.67086214  0.44353927  0.45961388     0.87700
C26         C  0.62659257  0.44971887  0.45828515    -0.52600
C27         C  0.61668695  0.97761548  0.47751609     0.10600
C28         C  0.65290195  0.99767796  0.49449227     0.21500
C29         C  0.68935668  0.97358506  0.43853119    -0.53300
C30         C  0.68004215  0.00193915  0.45647237     0.10700
C31         C  0.68283668  0.44674836  0.50578918    -0.52800
C32         C  0.67413348  0.97512926  0.52409788     0.11300
H33         H  0.60516525  0.43544289  0.44017639     0.15800
H34         H  0.64621356  0.02064736  0.50957641     0.01500
H35         H  0.70804419  0.97246285  0.41131006     0.16100
H36         H  0.69709459  0.42782698  0.52251129     0.15900
N37         N  0.76194023  0.29220453  0.35023303    -0.26100
N38         N  0.73983869  0.27495619  0.37634257    -0.34000
C39         C  0.71930778  0.29471496  0.40000230     0.02200
C40         C  0.72920085  0.32596412  0.38841036     0.08200
C41         C  0.75642475  0.32354287  0.35688133    -0.04900
H42         H  0.69900748  0.28688204  0.42408806     0.08900
H43         H  0.77043024  0.34302714  0.33937080     0.10100
Cu44       Cu  0.73847872  0.22547867  0.37854116     0.44200
Cu45       Cu  0.79579489  0.27183463  0.30481223     0.42000
Cu46       Cu  0.78756585  0.18469130  0.29516805     0.43900
N47         N  0.74075225  0.17622447  0.37424142    -0.33500
N48         N  0.75786379  0.16117177  0.34343125    -0.27800
C49         C  0.75295838  0.12930447  0.34938232    -0.03900
C50         C  0.73200554  0.12413798  0.38585256     0.08400
C51         C  0.72483889  0.15444644  0.40077023     0.02100
H52         H  0.76412992  0.11127107  0.32883573     0.09800
H53         H  0.70844733  0.16030945  0.42834018     0.08900
N54         N  0.81630269  0.21465644  0.25234828    -0.35000
N55         N  0.81977826  0.24624705  0.25656024    -0.27100
C56         C  0.83753335  0.25884187  0.22270283    -0.02400
C57         C  0.84571016  0.23409469  0.19558971     0.06200
C58         C  0.83184031  0.20634416  0.21555413     0.04300
H59         H  0.84185069  0.28435911  0.21716312     0.09400
H60         H  0.83200006  0.18195574  0.20387621     0.08300
C61         C  0.88539675  0.29255912  0.96238363     0.87700
C62         C  0.93008252  0.29029736  0.96091489    -0.52600
C63         C  0.94415936  0.26319445  0.97856324     0.10600
C64         C  0.91087885  0.23966742  0.99408853     0.21500
C65         C  0.86856091  0.26183097  0.94070152    -0.53300
C66         C  0.88239787  0.23430730  0.95656471     0.10700
C67         C  0.87443995  0.28708329  0.00851615    -0.52800
C68         C  0.88810800  0.25964732  0.02498568     0.11300
H69         H  0.94869413  0.30888590  0.94642679     0.15800
H70         H  0.92024677  0.21717130  0.00844811     0.01500
H71         H  0.84672429  0.26141102  0.91567480     0.16100
H72         H  0.85621346  0.30255648  0.02649886     0.15900
N73         N  0.32029289  0.19966834  0.32976852    -0.26100
N74         N  0.33233240  0.21555019  0.36377375    -0.34000
C75         C  0.34969446  0.19533877  0.38994610     0.02200
C76         C  0.34824980  0.16517677  0.37155671     0.08200
C77         C  0.32934270  0.16880146  0.33345201    -0.04900
H78         H  0.36162296  0.20200866  0.42042986     0.08900
H79         H  0.32270492  0.15041210  0.31005185     0.10100
Cu80       Cu  0.32487026  0.26389774  0.37241080     0.44200
Cu81       Cu  0.29193715  0.22080469  0.28033517     0.42000
Cu82       Cu  0.27833053  0.30620829  0.28677921     0.43900
N83         N  0.32243886  0.31315486  0.36947068    -0.33500
N84         N  0.30692772  0.32872542  0.33786478    -0.27800
C85         C  0.31457168  0.36044065  0.34370537    -0.03900
C86         C  0.33558503  0.36492922  0.38084901     0.08400
C87         C  0.33984637  0.33443874  0.39638926     0.02100
H88         H  0.30601697  0.37883722  0.32215563     0.09800
H89         H  0.35616453  0.32804187  0.42411148     0.08900
N90         N  0.25646995  0.27716289  0.23765783    -0.35000
N91         N  0.26279829  0.24616094  0.23519168    -0.27100
C92         C  0.24867984  0.23449454  0.19849572    -0.02400
C93         C  0.23224452  0.25916984  0.17685403     0.06200
C94         C  0.23754914  0.28593880  0.20255933     0.04300
H95         H  0.25119317  0.21001808  0.18783784     0.09400
H96         H  0.23020308  0.31026702  0.19530840     0.08300
C97         C  0.16656805  0.21840333  0.93820659     0.87700
C98         C  0.12234207  0.22076934  0.94432262    -0.52600
C99         C  0.11177689  0.24589832  0.96870265     0.10600
C100        C  0.14745846  0.26773086  0.98331511     0.21500
C101        C  0.18043363  0.25113935  0.92004981    -0.53300
C102        C  0.16987765  0.27679788  0.94315656     0.10700
C103        C  0.18441370  0.21934055  0.98267056    -0.52800
C104        C  0.17461507  0.24505912  0.00645615     0.11300
H105        H  0.10116074  0.20378386  0.92960899     0.15800
H106        H  0.14050368  0.28892635  0.00228467     0.01500
H107        H  0.19851468  0.25473411  0.89275966     0.16100
H108        H  0.20299031  0.20088175  0.99434404     0.15900
N109        N  0.23400785  0.06364800  0.81639771    -0.26100
N110        N  0.20707131  0.04725977  0.83805921    -0.34000
C111        C  0.18654104  0.06786614  0.86042087     0.02200
C112        C  0.20148118  0.09884087  0.85267898     0.08200
C113        C  0.23149615  0.09512919  0.82442110    -0.04900
H114        H  0.16309852  0.06057766  0.88140174     0.08900
H115        H  0.25131042  0.11374786  0.81194834     0.10100
Cu116      Cu  0.20350505  0.99765989  0.84057111     0.44200
Cu117      Cu  0.27372391  0.04218697  0.77845778     0.42000
Cu118      Cu  0.27926140  0.45625972  0.78407213     0.43900
N119        N  0.21425858  0.44962522  0.84798125    -0.33500
N120        N  0.24271636  0.43491974  0.82903386    -0.27800
C121        C  0.24305312  0.40453068  0.84300564    -0.03900
C122        C  0.21328954  0.39989403  0.87188626     0.08400
C123        C  0.19558077  0.42896314  0.87412585     0.02100
H124        H  0.26295410  0.38692929  0.83226405     0.09800
H125        H  0.17129594  0.43489473  0.89384518     0.08900
N126        N  0.30809486  0.48427056  0.73890516    -0.35000
N127        N  0.30567451  0.01580014  0.73747182    -0.27100
C128        C  0.32279271  0.02700386  0.70253030    -0.02400
C129        C  0.33705541  0.00143367  0.68090466     0.06200
C130        C  0.32725792  0.47460014  0.70473160     0.04300
H131        H  0.32260506  0.05169042  0.69225446     0.09400
H132        H  0.33106406  0.44977335  0.69630495     0.08300
C133        C  0.39936918  0.04647069  0.44629740     0.87700
C134        C  0.44389342  0.04199951  0.44998387    -0.52600
C135        C  0.45388690  0.51536665  0.47199831     0.10600
C136        C  0.41750591  0.49503961  0.48723005     0.21500
C137        C  0.38410782  0.01476553  0.42564519    -0.56100
C138        C  0.39325000  0.48783415  0.44701209     0.10700
C139        C  0.38422067  0.04511485  0.49109576    -0.52800
C140        C  0.39315181  0.51822288  0.51250833     0.11300
H141        H  0.46534271  0.05720097  0.43357171     0.15800
H142        H  0.42415267  0.47331886  0.50518807     0.01500
H143        H  0.36865614  0.51336315  0.39581924     0.16100
H144        H  0.36742295  0.06399402  0.50460078     0.15900
C145        C  0.40328684  0.49997811  0.58669524     0.24800
C146        C  0.37841482  0.51156121  0.55531008    -0.23300
C147        C  0.33921240  0.51746484  0.56520102     0.19700
C148        C  0.32568949  0.01321288  0.60592379     0.24700
C149        C  0.35077184  0.00248781  0.63742074    -0.23300
C150        C  0.38942498  0.49531470  0.62749506     0.19600
F151        F  0.41422149  0.48530070  0.65773596    -0.13200
F152        F  0.44148638  0.49475652  0.57847519    -0.15600
F153        F  0.28794232  0.01967677  0.61471134    -0.15600
F154        F  0.31376563  0.02714030  0.53536985    -0.13200
C155        C  0.23093302  0.35029106  0.91011819     0.24800
C156        C  0.20193076  0.36985669  0.89405588    -0.23300
C157        C  0.16204433  0.35964940  0.89739811     0.19700
C158        C  0.15151006  0.32970348  0.91469359     0.24700
C159        C  0.18053215  0.31001910  0.93012472    -0.23300
C160        C  0.22027807  0.32063329  0.92812750     0.19600
F161        F  0.24880732  0.30178817  0.94257609    -0.13200
F162        F  0.26960488  0.35986419  0.90830637    -0.15600
F163        F  0.11326443  0.31889022  0.91326242    -0.15600
F164        F  0.13338475  0.37763346  0.88135065    -0.13200
C165        C  0.16814959  0.15778550  0.93394807     0.24800
C166        C  0.17507710  0.18771592  0.91397480    -0.23300
C167        C  0.18675536  0.18735114  0.87160433     0.19700
C168        C  0.19494332  0.15848101  0.85180941     0.24700
C169        C  0.19071122  0.12911038  0.87310072    -0.23300
C170        C  0.17650387  0.12906236  0.91416257     0.19600
F171        F  0.17167574  0.10133759  0.93602089    -0.13200
F172        F  0.15302174  0.15618698  0.97305975    -0.15600
F173        F  0.20559970  0.15928143  0.81101948    -0.15600
F174        F  0.18780303  0.21408618  0.84768626    -0.13200
C175        C  0.37084726  0.41842468  0.37216607     0.24800
C176        C  0.35254851  0.39546619  0.39848488    -0.23300
C177        C  0.35059416  0.40195842  0.44162256     0.19700
C178        C  0.36485436  0.43168312  0.45779288     0.24700
C179        C  0.38181101  0.45512360  0.43112745    -0.23300
C180        C  0.38569218  0.44781170  0.38836763     0.19600
F181        F  0.40418828  0.46906687  0.36217655    -0.13200
F182        F  0.37509383  0.41217617  0.33078975    -0.15600
F183        F  0.36020883  0.43809021  0.49906009    -0.15600
F184        F  0.33319934  0.38012811  0.46781692    -0.13200
C185        C  0.33849888  0.10660048  0.38557121     0.24800
C186        C  0.36184385  0.13514145  0.38968595    -0.23300
C187        C  0.39703992  0.13500717  0.41294094     0.19700
C188        C  0.40939671  0.10651379  0.43057033     0.24700
C189        C  0.38720879  0.07714772  0.42455927    -0.23300
C190        C  0.35027087  0.07827208  0.40385882     0.19600
F191        F  0.32386112  0.05276180  0.40353930    -0.13200
F192        F  0.30283674  0.10650104  0.36606563    -0.15600
F193        F  0.44217962  0.10825908  0.45519799    -0.15600
F194        F  0.41962677  0.16252061  0.41870195    -0.13200
C195        C  0.16542901  0.26224006  0.08146424     0.24800
C196        C  0.18972848  0.25051528  0.04999561    -0.23300
C197        C  0.22861543  0.24333956  0.06062616     0.19700
C198        C  0.24222542  0.24639622  0.10185860     0.24700
C199        C  0.21787454  0.25772200  0.13317131    -0.23300
C200        C  0.17964128  0.26622188  0.12263069     0.19600
F201        F  0.15548448  0.27693891  0.15257572    -0.13200
F202        F  0.12739491  0.26843660  0.07300203    -0.15600
F203        F  0.27961425  0.23870414  0.11115175    -0.15600
F204        F  0.25390579  0.23384542  0.03102100    -0.13200
C205        C  0.01460293  0.28511934  0.98627590     0.24800
C206        C  0.98739926  0.25838539  0.98299876    -0.23300
C207        C  0.00241910  0.22749034  0.98338827     0.19700
C208        C  0.04290324  0.22369229  0.98222514     0.24700
C209        C  0.06967229  0.25053323  0.97901032    -0.23300
C210        C  0.05505956  0.28129661  0.98362355     0.19600
F211        F  0.07933645  0.30806944  0.98460320    -0.13200
F212        F  0.00237525  0.31525165  0.99257807    -0.15600
F213        F  0.05576628  0.19341157  0.98437031    -0.15600
F214        F  0.97856217  0.20050854  0.98383212    -0.13200
C215        C  0.88691859  0.26383165  0.14262125     0.24800
C216        C  0.86072796  0.23773736  0.15241693    -0.23300
C217        C  0.84675742  0.21697673  0.11993387     0.19700
C218        C  0.85718799  0.22325888  0.07842635     0.24700
C219        C  0.88120123  0.25048767  0.06880613    -0.23300
C220        C  0.89672388  0.27028733  0.10112716     0.19600
F221        F  0.92106720  0.29616036  0.09232926    -0.13200
F222        F  0.90287910  0.28331101  0.17316729    -0.15600
F223        F  0.84195804  0.20386032  0.04739895    -0.15600
F224        F  0.82105331  0.19181761  0.12777559    -0.13200
C225        C  0.50457580  0.47318605  0.47780620     0.24800
C226        C  0.49555875  0.50580341  0.47668380    -0.23300
C227        C  0.52701705  0.02922564  0.47843069     0.19700
C228        C  0.56612368  0.02032364  0.47817007     0.24700
C229        C  0.57507607  0.98768055  0.47925890    -0.23300
C230        C  0.54355792  0.46437226  0.48081086     0.19600
F231        F  0.55014664  0.43269498  0.48522581    -0.13200
F232        F  0.47610257  0.44933902  0.47403466    -0.15600
F233        F  0.59482280  0.04396027  0.47504851    -0.15600
F234        F  0.52024081  0.06102313  0.48031894    -0.13200
C235        C  0.69186166  0.03825322  0.39516806     0.24800
C236        C  0.69299090  0.03351518  0.43874292    -0.23300
C237        C  0.70676283  0.05896726  0.46490729     0.19700
C238        C  0.71933614  0.08854276  0.44776281     0.24700
C239        C  0.71877312  0.09300493  0.40415491    -0.23300
C240        C  0.70494532  0.06757375  0.37806905     0.19600
F241        F  0.70273905  0.07140139  0.33597888    -0.13200
F242        F  0.67697691  0.01478653  0.36900737    -0.15600
F243        F  0.73331500  0.11245021  0.47374580    -0.15600
F244        F  0.70939825  0.05493234  0.50693436    -0.13200
C245        C  0.73973861  0.38155430  0.41680688     0.24800
C246        C  0.71391864  0.35550569  0.40611014    -0.23300
C247        C  0.67367689  0.35731575  0.41414406     0.19700
C248        C  0.65915619  0.38506182  0.43172729     0.24700
C249        C  0.68469835  0.41219653  0.44078748    -0.23300
C250        C  0.72550915  0.40920598  0.43474921     0.19600
F251        F  0.75202388  0.43294845  0.44707911    -0.13200
F252        F  0.77909611  0.37974863  0.41150778    -0.15600
F253        F  0.62066039  0.38384107  0.44212998    -0.15600
F254        F  0.64813722  0.33212625  0.40478038    -0.13200
C255        C  0.88445485  0.15378100  0.90220905     0.24800
C256        C  0.84431338  0.14414118  0.90110363    -0.23300
C257        C  0.81679429  0.16404209  0.91872490     0.19700
C258        C  0.82937691  0.19299809  0.93795991     0.24700
C259        C  0.86956598  0.20260256  0.93921663    -0.23300
C260        C  0.89689671  0.18312763  0.92049589     0.19600
F261        F  0.93517959  0.19341200  0.91753445    -0.13200
F262        F  0.91137145  0.13539799  0.88399742    -0.15600
F263        F  0.80236113  0.21173277  0.95532946    -0.15600
F264        F  0.77787889  0.15505351  0.91818301    -0.13200
C265        C  0.87173277  0.35227194  0.96797477     0.24800
C266        C  0.87265621  0.32398828  0.94340064    -0.23300
C267        C  0.86626871  0.32669776  0.89979227     0.19700
C268        C  0.85371915  0.35518558  0.88266437     0.24700
C269        C  0.84919419  0.38220763  0.90815203    -0.23300
C270        C  0.85925370  0.38076234  0.95071999     0.19600
F271        F  0.85649647  0.40681156  0.97599257    -0.13200
F272        F  0.88438436  0.35307746  0.00837528    -0.15600
F273        F  0.84761165  0.35669165  0.84068956    -0.15600
F274        F  0.87392175  0.30246069  0.87305691    -0.13200
C275        C  0.72189677  0.47449550  0.58447254     0.24800
C276        C  0.68542283  0.98340105  0.56806653    -0.23300
C277        C  0.65984419  0.99969432  0.59420617     0.19700
C278        C  0.67018555  0.00616844  0.63604344     0.24700
C279        C  0.70558481  0.99567402  0.65258485    -0.23300
C280        C  0.73152473  0.48010071  0.62646568     0.19600
F281        F  0.76649578  0.47057717  0.64159928    -0.13200
F282        F  0.74861303  0.46070855  0.55980485    -0.15600
F283        F  0.64478947  0.02124850  0.66096868    -0.15600
F284        F  0.62402284  0.00796389  0.58006551    -0.13200
N285        N  0.80209384  0.94537161  0.85128346    -0.26100
N286        N  0.82665897  0.96286720  0.87536087    -0.34000
C287        C  0.84704491  0.94328333  0.89966955     0.02200
C288        C  0.83476237  0.91190498  0.89006606     0.08200
C289        C  0.80623455  0.91415713  0.85926104    -0.04900
H290        H  0.86963799  0.95134124  0.92195479     0.08900
H291        H  0.78959158  0.89462009  0.84379890     0.10100
Cu292      Cu  0.83079287  0.51228976  0.87305889     0.44200
Cu293      Cu  0.76578223  0.96481690  0.80751253     0.42000
Cu294      Cu  0.76166846  0.55091905  0.80271363     0.43900
N295        N  0.82505536  0.56115750  0.86913482    -0.33500
N296        N  0.79874039  0.57517626  0.84561577    -0.27800
C297        C  0.80154247  0.60700361  0.85315862    -0.03900
C298        C  0.83131679  0.61310240  0.88234107     0.08400
C299        C  0.84562784  0.58360603  0.89168788     0.02100
H300        H  0.78356672  0.62438835  0.83821171     0.09800
H301        H  0.86854903  0.57867048  0.91415027     0.08900
N302        N  0.73656637  0.51997966  0.75765482    -0.35000
N303        N  0.73883422  0.98847167  0.75976110    -0.27100
C304        C  0.72603402  0.97509455  0.72359167    -0.02400
C305        C  0.71487384  0.99926243  0.69740495     0.06200
C306        C  0.72171719  0.52748822  0.71991535     0.04300
H307        H  0.72715265  0.94982633  0.71597958     0.09400
H308        H  0.71922884  0.55170214  0.70852003     0.08300
C309        C  0.67086168  0.94353835  0.45961222     0.87700
C310        C  0.62659094  0.94971617  0.45828457    -0.52600
C311        C  0.61668999  0.47761894  0.47751763     0.10600
C312        C  0.65290559  0.49767897  0.49449610     0.21500
C313        C  0.68935965  0.47358494  0.43853448    -0.53300
C314        C  0.68004688  0.50193971  0.45647782     0.10700
C315        C  0.68283673  0.94675041  0.50578806    -0.52800
C316        C  0.67413518  0.47512787  0.52410084     0.11300
H317        H  0.60516059  0.93543471  0.44017399     0.15800
H318        H  0.64621794  0.52064692  0.50957930     0.01500
H319        H  0.70804145  0.47246295  0.41132007     0.16100
H320        H  0.69709728  0.92782739  0.52251413     0.15900
N321        N  0.76194401  0.79220695  0.35023635    -0.26100
N322        N  0.73984630  0.77495703  0.37635429    -0.34000
C323        C  0.71931665  0.79471618  0.40001217     0.02200
C324        C  0.72920385  0.82596585  0.38841393     0.08200
C325        C  0.75642450  0.82354371  0.35688109    -0.04900
H326        H  0.69901685  0.78688438  0.42410564     0.08900
H327        H  0.77042905  0.84303502  0.33936066     0.10100
Cu328      Cu  0.73849628  0.72547909  0.37855869     0.44200
Cu329      Cu  0.79579296  0.77183285  0.30481511     0.42000
Cu330      Cu  0.78757638  0.68469025  0.29517738     0.43900
N331        N  0.74077761  0.67622427  0.37425736    -0.33500
N332        N  0.75788349  0.66117262  0.34344808    -0.27800
C333        C  0.75297933  0.62930458  0.34939709    -0.03900
C334        C  0.73203192  0.62413692  0.38586715     0.08400
C335        C  0.72486595  0.65444495  0.40078994     0.02100
H336        H  0.76414907  0.61126968  0.32884244     0.09800
H337        H  0.70848586  0.66030418  0.42834368     0.08900
N338        N  0.81630123  0.71465333  0.25235092    -0.35000
N339        N  0.81977253  0.74624650  0.25656072    -0.27100
C340        C  0.83752106  0.75884028  0.22270058    -0.02400
C341        C  0.84569921  0.73409253  0.19558744     0.06200
C342        C  0.83183515  0.70634160  0.21555630     0.04300
H343        H  0.84183476  0.78435960  0.21715761     0.09400
H344        H  0.83199719  0.68194689  0.20387796     0.08300
C345        C  0.88537012  0.79256084  0.96238173     0.87700
C346        C  0.93005566  0.79030014  0.96091105    -0.52600
C347        C  0.94413402  0.76319675  0.97855842     0.10600
C348        C  0.91085437  0.73967020  0.99408484     0.21500
C349        C  0.86853511  0.76183266  0.94069992    -0.53300
C350        C  0.88237345  0.73430896  0.95656303     0.10700
C351        C  0.87441426  0.78708544  0.00851404    -0.52800
C352        C  0.88808402  0.75964961  0.02498313     0.11300
H353        H  0.94866476  0.80888679  0.94642251     0.15800
H354        H  0.92022266  0.71717274  0.00844447     0.01500
H355        H  0.84670083  0.76141136  0.91567839     0.16100
H356        H  0.85618777  0.80255821  0.02649814     0.15900
N357        N  0.32026930  0.69966519  0.32975347    -0.26100
N358        N  0.33231336  0.71554866  0.36375674    -0.34000
C359        C  0.34968149  0.69533856  0.38992575     0.02200
C360        C  0.34823678  0.66517607  0.37153745     0.08200
C361        C  0.32932280  0.66879935  0.33343628    -0.04900
H362        H  0.36161549  0.70201014  0.42040656     0.08900
H363        H  0.32268424  0.65040854  0.31003661     0.10100
Cu364      Cu  0.32485357  0.76389644  0.37239388     0.44200
Cu365      Cu  0.29190720  0.72080224  0.28032485     0.42000
Cu366      Cu  0.27831881  0.80620953  0.28676110     0.43900
N367        N  0.32242870  0.81315401  0.36945321    -0.33500
N368        N  0.30691918  0.82872643  0.33784538    -0.27800
C369        C  0.31456521  0.86044063  0.34368736    -0.03900
C370        C  0.33557743  0.86492845  0.38083228     0.08400
C371        C  0.33983606  0.83443704  0.39637191     0.02100
H372        H  0.30601022  0.87884089  0.32213618     0.09800
H373        H  0.35615268  0.82803956  0.42409721     0.08900
N374        N  0.25644837  0.77716463  0.23764431    -0.35000
N375        N  0.26276927  0.74616087  0.23518260    -0.27100
C376        C  0.24864671  0.73449316  0.19848957    -0.02400
C377        C  0.23221625  0.75916883  0.17684386     0.06200
C378        C  0.23752826  0.78594053  0.20254520     0.04300
H379        H  0.25115560  0.71001268  0.18783518     0.09400
H380        H  0.23018861  0.81026912  0.19529134     0.08300
C381        C  0.16653714  0.71839681  0.93819637     0.87700
C382        C  0.12231162  0.72076448  0.94431187    -0.52600
C383        C  0.11175044  0.74589618  0.96869210     0.10600
C384        C  0.14743189  0.76772626  0.98330357     0.21500
C385        C  0.18040633  0.75113099  0.92003933    -0.53300
C386        C  0.16985306  0.77679140  0.94314534     0.10700
C387        C  0.18438350  0.71933326  0.98265952    -0.52800
C388        C  0.17458787  0.74505303  0.00644558     0.11300
H389        H  0.10114062  0.70378970  0.92960656     0.15800
H390        H  0.14048074  0.78892137  0.00227118     0.01500
H391        H  0.19848789  0.75472335  0.89275269     0.16100
H392        H  0.20296100  0.70087225  0.99433488     0.15900
N393        N  0.23397618  0.56364947  0.81637714    -0.26100
N394        N  0.20704612  0.54725989  0.83803730    -0.34000
C395        C  0.18650925  0.56786302  0.86039915     0.02200
C396        C  0.20144119  0.59883805  0.85265578     0.08200
C397        C  0.23145762  0.59513235  0.82439769    -0.04900
H398        H  0.16306925  0.56057081  0.88138230     0.08900
H399        H  0.25125971  0.61374543  0.81192990     0.10100
Cu400      Cu  0.20349324  0.49765881  0.84055236     0.44200
Cu401      Cu  0.27370233  0.54219466  0.77844271     0.42000
Cu402      Cu  0.27926169  0.95625255  0.78408550     0.43900
N403        N  0.21426016  0.94962433  0.84799938    -0.33500
N404        N  0.24271565  0.93491714  0.82904810    -0.27800
C405        C  0.24304871  0.90452746  0.84301590    -0.03900
C406        C  0.21328601  0.89989082  0.87189750     0.08400
C407        C  0.19558150  0.92896178  0.87414189     0.02100
H408        H  0.26294751  0.88692430  0.83226929     0.09800
H409        H  0.17129743  0.93489300  0.89386397     0.08900
N410        N  0.30809825  0.98425513  0.73891573    -0.35000
N411        N  0.30566349  0.51581150  0.73746149    -0.27100
C412        C  0.32278191  0.52702031  0.70252052    -0.02400
C413        C  0.33705221  0.50145362  0.68089675     0.06200
C414        C  0.32725504  0.97458200  0.70474183     0.04300
H415        H  0.32258762  0.55170298  0.69224764     0.09400
H416        H  0.33105552  0.94974728  0.69631281     0.08300
C417        C  0.39937509  0.54647717  0.44628329     0.87700
C418        C  0.44389994  0.54200755  0.44997294    -0.52600
C419        C  0.45388091  0.01535654  0.47200382     0.10600
C420        C  0.41749879  0.99502875  0.48723154     0.21500
C421        C  0.38411574  0.51476838  0.42563803    -0.56100
C422        C  0.39324181  0.98782785  0.44701320     0.10700
C423        C  0.38422615  0.54512631  0.49108169    -0.52800
C424        C  0.39314700  0.01820821  0.51251609     0.11300
H425        H  0.46534494  0.55720539  0.43356095     0.15800
H426        H  0.42414712  0.97330338  0.50518654     0.01500
H427        H  0.36864730  0.01336468  0.39582601     0.16100
H428        H  0.36742570  0.56401034  0.50458332     0.15900
C429        C  0.40328699  0.99996294  0.58670172     0.24800
C430        C  0.37841104  0.01154249  0.55531692    -0.23300
C431        C  0.33920779  0.01744048  0.56520881     0.19700
C432        C  0.32569269  0.51323897  0.60591595     0.24700
C433        C  0.35077168  0.50250939  0.63741312    -0.23300
C434        C  0.38942685  0.99529878  0.62750206     0.19600
F435        F  0.41422632  0.98528949  0.65774307    -0.13200
F436        F  0.44148734  0.99474644  0.57848022    -0.15600
F437        F  0.28794687  0.51970802  0.61470249    -0.15600
F438        F  0.31377286  0.52716725  0.53536162    -0.13200
C439        C  0.23092046  0.85028128  0.91011841     0.24800
C440        C  0.20192191  0.86985284  0.89406146    -0.23300
C441        C  0.16203368  0.85964957  0.89740247     0.19700
C442        C  0.15149475  0.82970198  0.91468956     0.24700
C443        C  0.18051323  0.81001173  0.93011501    -0.23300
C444        C  0.22026070  0.82062194  0.92811965     0.19600
F445        F  0.24878645  0.80177128  0.94256280    -0.13200
F446        F  0.26959372  0.85985054  0.90830808    -0.15600
F447        F  0.11324768  0.81889268  0.91325534    -0.15600
F448        F  0.13337690  0.87763962  0.88136078    -0.13200
C449        C  0.16812126  0.65777861  0.93393494     0.24800
C450        C  0.17504263  0.68770935  0.91396160    -0.23300
C451        C  0.18670593  0.68734614  0.87158615     0.19700
C452        C  0.19489092  0.65847692  0.85178766     0.24700
C453        C  0.19066945  0.62910657  0.87307877    -0.23300
C454        C  0.17647191  0.62905637  0.91414553     0.19600
F455        F  0.17165120  0.60133100  0.93600321    -0.13200
F456        F  0.15300224  0.65617823  0.97305059    -0.15600
F457        F  0.20553463  0.65927767  0.81099347    -0.15600
F458        F  0.18774020  0.71408146  0.84766848    -0.13200
C459        C  0.37083616  0.91842588  0.37215689     0.24800
C460        C  0.35253906  0.89546414  0.39847238    -0.23300
C461        C  0.35058555  0.90195236  0.44161117     0.19700
C462        C  0.36484551  0.93167552  0.45778583     0.24700
C463        C  0.38180111  0.95511931  0.43112368    -0.23300
C464        C  0.38568048  0.94781140  0.38836257     0.19600
F465        F  0.40417473  0.96906959  0.36217414    -0.13200
F466        F  0.37508171  0.91218164  0.33077943    -0.15600
F467        F  0.36020073  0.93807842  0.49905425    -0.15600
F468        F  0.33319154  0.88011929  0.46780248    -0.13200
C469        C  0.33849711  0.60659830  0.38555113     0.24800
C470        C  0.36183786  0.63514161  0.38966370    -0.23300
C471        C  0.39703661  0.63501046  0.41291451     0.19700
C472        C  0.40939814  0.60651876  0.43054434     0.24700
C473        C  0.38721312  0.57715100  0.42453863    -0.23300
C474        C  0.35027372  0.57827143  0.40383948     0.19600
F475        F  0.32386759  0.55275900  0.40352291    -0.13200
F476        F  0.30283359  0.60649498  0.36604796    -0.15600
F477        F  0.44218322  0.60826803  0.45516878    -0.15600
F478        F  0.41962059  0.66252553  0.41867212    -0.13200
C479        C  0.16540208  0.76223774  0.08145199     0.24800
C480        C  0.18970025  0.75050919  0.04998491    -0.23300
C481        C  0.22858612  0.74333076  0.06061707     0.19700
C482        C  0.24219576  0.74638864  0.10184956     0.24700
C483        C  0.21784582  0.75771887  0.13316096    -0.23300
C484        C  0.17961410  0.76622089  0.12261837     0.19600
F485        F  0.15545806  0.77694185  0.15256180    -0.13200
F486        F  0.12736893  0.76843697  0.07298836    -0.15600
F487        F  0.27958309  0.73869372  0.11114386    -0.15600
F488        F  0.25387575  0.73383314  0.03101335    -0.13200
C489        C  0.01457868  0.78512081  0.98626295     0.24800
C490        C  0.98737414  0.75838760  0.98299027    -0.23300
C491        C  0.00239276  0.72749173  0.98338255     0.19700
C492        C  0.04287671  0.72369324  0.98221788     0.24700
C493        C  0.06964553  0.75053200  0.97899967    -0.23300
C494        C  0.05503549  0.78129735  0.98361033     0.19600
F495        F  0.07931325  0.80806910  0.98458779    -0.13200
F496        F  0.00235257  0.81525419  0.99256204    -0.15600
F497        F  0.05573848  0.69341185  0.98436493    -0.15600
F498        F  0.97853558  0.70051045  0.98383125    -0.13200
C499        C  0.88689812  0.76383604  0.14261672     0.24800
C500        C  0.86071444  0.73773769  0.15241435    -0.23300
C501        C  0.84674688  0.71697438  0.11993275     0.19700
C502        C  0.85717422  0.72325790  0.07842467     0.24700
C503        C  0.88118023  0.75049028  0.06880299    -0.23300
C504        C  0.89669980  0.77029299  0.10112222     0.19600
F505        F  0.92103692  0.79616940  0.09232212    -0.13200
F506        F  0.90285661  0.78331842  0.17316094    -0.15600
F507        F  0.84194843  0.70385634  0.04739827    -0.15600
F508        F  0.82104994  0.69181123  0.12777693    -0.13200
C509        C  0.50457236  0.97317788  0.47781005     0.24800
C510        C  0.49555278  0.00579446  0.47668993    -0.23300
C511        C  0.52702438  0.52923299  0.47842219     0.19700
C512        C  0.56613035  0.52032937  0.47816385     0.24700
C513        C  0.57508007  0.48768549  0.47925656    -0.23300
C514        C  0.54355536  0.96436572  0.48081343     0.19600
F515        F  0.55014634  0.93268908  0.48522732    -0.13200
F516        F  0.47610079  0.94932966  0.47403754    -0.15600
F517        F  0.59483153  0.54396432  0.47504083    -0.15600
F518        F  0.52025004  0.56103100  0.48030595    -0.13200
C519        C  0.69186740  0.53825738  0.39517757     0.24800
C520        C  0.69300055  0.53351522  0.43875090    -0.23300
C521        C  0.70678175  0.55896297  0.46491811     0.19700
C522        C  0.71936081  0.58853788  0.44777587     0.24700
C523        C  0.71879410  0.59300471  0.40416997    -0.23300
C524        C  0.70495589  0.56757744  0.37808074     0.19600
F525        F  0.70274486  0.57140958  0.33599196    -0.13200
F526        F  0.67697443  0.51479479  0.36901526    -0.15600
F527        F  0.73334918  0.61244126  0.47376085    -0.15600
F528        F  0.70942022  0.55492346  0.50694420    -0.13200
C529        C  0.73973912  0.88155408  0.41680962     0.24800
C530        C  0.71391994  0.85550531  0.40611327    -0.23300
C531        C  0.67367822  0.85731398  0.41414697     0.19700
C532        C  0.65915674  0.88505985  0.43172905     0.24700
C533        C  0.68469776  0.91219575  0.44078849    -0.23300
C534        C  0.72550902  0.90920570  0.43475050     0.19600
F535        F  0.75202269  0.93294901  0.44707900    -0.13200
F536        F  0.77909658  0.87974881  0.41151040    -0.15600
F537        F  0.62066062  0.88383765  0.44213127    -0.15600
F538        F  0.64813939  0.83212377  0.40478369    -0.13200
C539        C  0.88443316  0.65377716  0.90222246     0.24800
C540        C  0.84429192  0.64413589  0.90111912    -0.23300
C541        C  0.81677189  0.66403911  0.91873360     0.19700
C542        C  0.82935307  0.69299825  0.93796130     0.24700
C543        C  0.86954148  0.70260373  0.93921693    -0.23300
C544        C  0.89687333  0.68312695  0.92050117     0.19600
F545        F  0.93515536  0.69341225  0.91753677    -0.13200
F546        F  0.91135094  0.63539223  0.88401671    -0.15600
F547        F  0.80233630  0.71173476  0.95532584    -0.15600
F548        F  0.77785663  0.65504966  0.91819276    -0.13200
C549        C  0.87171222  0.85227433  0.96797316     0.24800
C550        C  0.87262772  0.82399022  0.94339888    -0.23300
C551        C  0.86622987  0.82669967  0.89979213     0.19700
C552        C  0.85367878  0.85518812  0.88266790     0.24700
C553        C  0.84916229  0.88221062  0.90815590    -0.23300
C554        C  0.85923150  0.88076528  0.95072208     0.19600
F555        F  0.85648216  0.90681481  0.97599541    -0.13200
F556        F  0.88437225  0.85307897  0.00837057    -0.15600
F557        F  0.84756192  0.85669446  0.84069420    -0.15600
F558        F  0.87387564  0.80246261  0.87305366    -0.13200
C559        C  0.72189342  0.97450401  0.58447228     0.24800
C560        C  0.68542848  0.48339879  0.56806855    -0.23300
C561        C  0.65985618  0.49969841  0.59420828     0.19700
C562        C  0.67020102  0.50617195  0.63604513     0.24700
C563        C  0.70559702  0.49566962  0.65258572    -0.23300
C564        C  0.73151886  0.98011035  0.62646579     0.19600
F565        F  0.76649231  0.97059326  0.64160131    -0.13200
F566        F  0.74861400  0.96072185  0.55980508    -0.15600
F567        F  0.64481122  0.52125836  0.66097046    -0.15600
F568        F  0.62403710  0.50797505  0.58006950    -0.13200
loop_ 
_geom_bond_atom_site_label_1 
_geom_bond_atom_site_label_2 
_geom_bond_distance 
_geom_bond_site_symmetry_2 
_ccdc_geom_bond_type 
N1            N2   1.319       .  A
N1            C5   1.341       .  A
N1           Cu9   2.053       .  S
N2            C3   1.343       .  A
N2         Cu292   2.059       .  S
C3            C4   1.384       .  A
C3            H6   1.082       .  S
C4            C5   1.382       .  A
C4          C269   1.472       .  S
C5            H7   1.082       .  S
Cu8          N11   2.060       .  S
Cu8         N286   2.059   1_545  S
Cu9          N19   2.054       .  S
Cu10         N12   2.077       .  S
Cu10         N18   2.076       .  S
N11          N12   1.323       .  A
N11          C15   1.342       .  A
N12          C13   1.345       .  A
C13          C14   1.383       .  A
C13          H16   1.082       .  S
C14          C15   1.378       .  A
C14         C256   1.468       .  S
C15          H17   1.082       .  S
N18         N303   1.321   1_545  A
N18          C22   1.347       .  A
N19         N302   1.321       .  A
N19          C20   1.340       .  A
C20          C21   1.378       .  A
C20          H23   1.082       .  S
C21         C306   1.384       .  A
C21         C563   1.469       .  S
C22         C305   1.384   1_545  A
C22          H24   1.081       .  S
C25          C26   1.542       .  S
C25          C31   1.531       .  S
C25         C313   1.535       .  S
C25         C249   1.533       .  S
C26          H33   1.079       .  S
C26         C311   1.371       .  D
C27          C28   1.545       .  S
C27         C310   1.371       .  D
C27         C229   1.499       .  S
C28          C32   1.537       .  S
C28          C30   1.541   1_565  S
C28          H34   1.105   1_565  S
C29         C309   1.535       .  S
C29          H35   1.086       .  S
C29          C30   1.364   1_565  D
C30         C236   1.483       .  S
C31          H36   1.086       .  S
C31         C316   1.364       .  D
C32         C315   1.364       .  D
C32         C276   1.487       .  S
N37          N38   1.321       .  A
N37          C41   1.345       .  A
N37         Cu45   2.070       .  S
N38          C39   1.343       .  A
N38         Cu44   2.061       .  S
C39          C40   1.382       .  A
C39          H42   1.081       .  S
C40          C41   1.384       .  A
C40         C246   1.473       .  S
C41          H43   1.082       .  S
Cu44         N47   2.061       .  S
Cu45         N55   2.070       .  S
Cu46         N48   2.077       .  S
Cu46         N54   2.077       .  S
N47          N48   1.322       .  A
N47          C51   1.343       .  A
N48          C49   1.344       .  A
C49          C50   1.386       .  A
C49          H52   1.082       .  S
C50          C51   1.382       .  A
C50         C239   1.477       .  S
C51          H53   1.082       .  S
N54          N55   1.322       .  A
N54          C58   1.346       .  A
N55          C56   1.342       .  A
C56          C57   1.385       .  A
C56          H59   1.082       .  S
C57          C58   1.388       .  A
C57         C216   1.483       .  S
C58          H60   1.081       .  S
C61          C62   1.530       .  S
C61          C67   1.541   1_556  S
C61          C65   1.535       .  S
C61         C266   1.527       .  S
C62          H69   1.084       .  S
C62          C63   1.371       .  D
C63          C64   1.547       .  S
C63         C206   1.501       .  S
C64          C68   1.531   1_556  S
C64          C66   1.542       .  S
C64          H70   1.106   1_556  S
C65          H71   1.085       .  S
C65          C66   1.360       .  D
C66         C259   1.474       .  S
C67          H72   1.085       .  S
C67          C68   1.362       .  D
C68         C219   1.472       .  S
N73          N74   1.320       .  A
N73          C77   1.343       .  A
N73         Cu81   2.067       .  S
N74          C75   1.344       .  A
N74         Cu80   2.061       .  S
C75          C76   1.383       .  A
C75          H78   1.081       .  S
C76          C77   1.384       .  A
C76         C186   1.475       .  S
C77          H79   1.082       .  S
Cu80         N83   2.061       .  S
Cu81         N91   2.067       .  S
Cu82         N84   2.086       .  S
Cu82         N90   2.085       .  S
N83          N84   1.323       .  A
N83          C87   1.344       .  A
N84          C85   1.345       .  A
C85          C86   1.386       .  A
C85          H88   1.082       .  S
C86          C87   1.380       .  A
C86         C176   1.477       .  S
C87          H89   1.082       .  S
N90          N91   1.322       .  A
N90          C94   1.349       .  A
N91          C92   1.342       .  A
C92          C93   1.380       .  A
C92          H95   1.081       .  S
C93          C94   1.385       .  A
C93         C199   1.475       .  S
C94          H96   1.082       .  S
C97          C98   1.528       .  S
C97         C103   1.539       .  S
C97         C101   1.539       .  S
C97         C166   1.534       .  S
C98         H105   1.086       .  S
C98          C99   1.367       .  D
C99         C100   1.546       .  S
C99         C209   1.496       .  S
C100        C104   1.541   1_556  S
C100        C102   1.540       .  S
C100        H106   1.106   1_556  S
C101        H107   1.080       .  S
C101        C102   1.362       .  D
C102        C159   1.476       .  S
C103        H108   1.085       .  S
C103        C104   1.368   1_556  D
C104        C196   1.491       .  S
N109        N110   1.320       .  A
N109        C113   1.342       .  A
N109       Cu117   2.061       .  S
N110        C111   1.343       .  A
N110       Cu116   2.066   1_545  S
C111        C112   1.387       .  A
C111        H114   1.081       .  S
C112        C113   1.386       .  A
C112        C169   1.482       .  S
C113        H115   1.082       .  S
Cu116       N403   2.067       .  S
Cu117       N127   2.061       .  S
Cu118       N120   2.084       .  S
Cu118       N126   2.084       .  S
N119        N120   1.323       .  A
N119        C123   1.344       .  A
N119       Cu400   2.067       .  S
N120        C121   1.345       .  A
C121        C122   1.385       .  A
C121        H124   1.081       .  S
C122        C123   1.382       .  A
C122        C156   1.478       .  S
C123        H125   1.083       .  S
N126        N411   1.322       .  A
N126        C130   1.349       .  A
N127        N410   1.322   1_545  A
N127        C128   1.341       .  A
C128        C129   1.379       .  A
C128        H131   1.082       .  S
C129        C414   1.386   1_545  A
C129        C149   1.472       .  S
C130        C413   1.386       .  A
C130        H132   1.082       .  S
C133        C134   1.539       .  S
C133        C139   1.528       .  S
C133        C137   1.538       .  S
C133        C189   1.531       .  S
C134        H141   1.084       .  S
C134        C419   1.373       .  D
C135        C136   1.549       .  S
C135        C418   1.373       .  D
C135        C226   1.499       .  S
C136        C140   1.537       .  S
C136        C138   1.540       .  S
C136        H142   1.106       .  S
C137        H427   1.084       .  S
C137        C422   1.364   1_545  D
C138        C421   1.364       .  D
C138        C179   1.484       .  S
C139        H144   1.086       .  S
C139        C424   1.362       .  D
C140        C423   1.362       .  D
C140        C146   1.486       .  S
H143        C421   1.084       .  S
C145        C146   1.408       .  A
C145        C150   1.403       .  A
C145        F152   1.358       .  S
C146        C147   1.408       .  A
C147        C432   1.395       .  A
C147        F438   1.358       .  S
C148        C149   1.402       .  A
C148        C431   1.395       .  A
C148        F153   1.358       .  S
C149        C434   1.404   1_545  A
C150        C433   1.404       .  A
C150        F151   1.357       .  S
F154        C431   1.358       .  S
C155        C156   1.406       .  A
C155        C160   1.399       .  A
C155        F162   1.358       .  S
C156        C157   1.407       .  A
C157        C158   1.399       .  A
C157        F164   1.358       .  S
C158        C159   1.403       .  A
C158        F163   1.356       .  S
C159        C160   1.404       .  A
C160        F161   1.358       .  S
C165        C166   1.414       .  A
C165        C170   1.394       .  A
C165        F172   1.358       .  S
C166        C167   1.416       .  A
C167        C168   1.398       .  A
C167        F174   1.353       .  S
C168        C169   1.405       .  A
C168        F173   1.358       .  S
C169        C170   1.404       .  A
C170        F171   1.357       .  S
C175        C176   1.404       .  A
C175        C180   1.395       .  A
C175        F182   1.358       .  S
C176        C177   1.407       .  A
C177        C178   1.401       .  A
C177        F184   1.358       .  S
C178        C179   1.406       .  A
C178        F183   1.358       .  S
C179        C180   1.408       .  A
C180        F181   1.358       .  S
C185        C186   1.401       .  A
C185        C190   1.395       .  A
C185        F192   1.358       .  S
C186        C187   1.403       .  A
C187        C188   1.399       .  A
C187        F194   1.358       .  S
C188        C189   1.416       .  A
C188        F193   1.357       .  S
C189        C190   1.417       .  A
C190        F191   1.356       .  S
C195        C196   1.411       .  A
C195        C200   1.403       .  A
C195        F202   1.357       .  S
C196        C197   1.410       .  A
C197        C198   1.396       .  A
C197        F204   1.358       .  S
C198        C199   1.402       .  A
C198        F203   1.358       .  S
C199        C200   1.404       .  A
C200        F201   1.358       .  S
C205        C206   1.414   1_455  A
C205        C210   1.398       .  A
C205        F212   1.357       .  S
C206        C207   1.409   1_655  A
C207        C208   1.396       .  A
C207        F214   1.353   1_455  S
C208        C209   1.411       .  A
C208        F213   1.358       .  S
C209        C210   1.406       .  A
C210        F211   1.354       .  S
C215        C216   1.409       .  A
C215        C220   1.396       .  A
C215        F222   1.357       .  S
C216        C217   1.411       .  A
C217        C218   1.400       .  A
C217        F224   1.357       .  S
C218        C219   1.401       .  A
C218        F223   1.358       .  S
C219        C220   1.401       .  A
C220        F221   1.358       .  S
C225        C226   1.409       .  A
C225        C230   1.397       .  A
C225        F232   1.356       .  S
C226        C511   1.412       .  A
C227        C228   1.400       .  A
C227        C510   1.412       .  A
C227        F234   1.357       .  S
C228        C229   1.409   1_545  A
C228        F233   1.356       .  S
C229        C514   1.411       .  A
C230        C513   1.411       .  A
C230        F231   1.358       .  S
C235        C236   1.409       .  A
C235        C240   1.395       .  A
C235        F242   1.358       .  S
C236        C237   1.406       .  A
C237        C238   1.400       .  A
C237        F244   1.358       .  S
C238        C239   1.408       .  A
C238        F243   1.358       .  S
C239        C240   1.404       .  A
C240        F241   1.358       .  S
C245        C246   1.400       .  A
C245        C250   1.396       .  A
C245        F252   1.358       .  S
C246        C247   1.402       .  A
C247        C248   1.398       .  A
C247        F254   1.358       .  S
C248        C249   1.417       .  A
C248        F253   1.354       .  S
C249        C250   1.416       .  A
C250        F251   1.358       .  S
C255        C256   1.404       .  A
C255        C260   1.397       .  A
C255        F262   1.358       .  S
C256        C257   1.403       .  A
C257        C258   1.397       .  A
C257        F264   1.358       .  S
C258        C259   1.406       .  A
C258        F263   1.358       .  S
C259        C260   1.402       .  A
C260        F261   1.355       .  S
C265        C266   1.415       .  A
C265        C270   1.395       .  A
C265        F272   1.357   1_556  S
C266        C267   1.415       .  A
C267        C268   1.394       .  A
C267        F274   1.357       .  S
C268        C269   1.402       .  A
C268        F273   1.358       .  S
C269        C270   1.402       .  A
C270        F271   1.358       .  S
C275        C280   1.394       .  A
C275        C560   1.410       .  A
C275        F282   1.358       .  S
C276        C277   1.410       .  A
C276        C559   1.410       .  A
C277        C278   1.401   1_565  A
C277        F284   1.357   1_565  S
C278        C279   1.401   1_545  A
C278        F283   1.358       .  S
C279        C564   1.402       .  A
C279        C305   1.469       .  S
C280        C563   1.402       .  A
C280        F281   1.358       .  S
N285        N286   1.319       .  A
N285        C289   1.341       .  A
N285       Cu293   2.053       .  S
N286        C287   1.343       .  A
C287        C288   1.384       .  A
C287        H290   1.082       .  S
C288        C289   1.382       .  A
C288        C553   1.472       .  S
C289        H291   1.082       .  S
Cu292       N295   2.060       .  S
Cu293       N303   2.054       .  S
Cu294       N296   2.077       .  S
Cu294       N302   2.076       .  S
N295        N296   1.323       .  A
N295        C299   1.342       .  A
N296        C297   1.345       .  A
C297        C298   1.383       .  A
C297        H300   1.081       .  S
C298        C299   1.378       .  A
C298        C540   1.468       .  S
C299        H301   1.083       .  S
N302        C306   1.347       .  A
N303        C304   1.340       .  A
C304        C305   1.378       .  A
C304        H307   1.082       .  S
C306        H308   1.081       .  S
C309        C310   1.542       .  S
C309        C315   1.531       .  S
C309        C533   1.533       .  S
C310        H317   1.079       .  S
C311        C312   1.545       .  S
C311        C513   1.499       .  S
C312        C316   1.537       .  S
C312        C314   1.541       .  S
C312        H318   1.105       .  S
C313        H319   1.086       .  S
C313        C314   1.364       .  D
C314        C520   1.483       .  S
C315        H320   1.087       .  S
C316        C560   1.487       .  S
N321        N322   1.321       .  A
N321        C325   1.345       .  A
N321       Cu329   2.069       .  S
N322        C323   1.343       .  A
N322       Cu328   2.061       .  S
C323        C324   1.382       .  A
C323        H326   1.081       .  S
C324        C325   1.384       .  A
C324        C530   1.473       .  S
C325        H327   1.082       .  S
Cu328       N331   2.062       .  S
Cu329       N339   2.070       .  S
Cu330       N332   2.077       .  S
Cu330       N338   2.077       .  S
N331        N332   1.322       .  A
N331        C335   1.343       .  A
N332        C333   1.344       .  A
C333        C334   1.386       .  A
C333        H336   1.082       .  S
C334        C335   1.382       .  A
C334        C523   1.477       .  S
C335        H337   1.081       .  S
N338        N339   1.322       .  A
N338        C342   1.346       .  A
N339        C340   1.342       .  A
C340        C341   1.385       .  A
C340        H343   1.082       .  S
C341        C342   1.388       .  A
C341        C500   1.483       .  S
C342        H344   1.081       .  S
C345        C346   1.530       .  S
C345        C351   1.541   1_556  S
C345        C349   1.535       .  S
C345        C550   1.527       .  S
C346        H353   1.084       .  S
C346        C347   1.371       .  D
C347        C348   1.547       .  S
C347        C490   1.501       .  S
C348        C352   1.531   1_556  S
C348        C350   1.542       .  S
C348        H354   1.106   1_556  S
C349        H355   1.085       .  S
C349        C350   1.360       .  D
C350        C543   1.474       .  S
C351        H356   1.085       .  S
C351        C352   1.362       .  D
C352        C503   1.472       .  S
N357        N358   1.320       .  A
N357        C361   1.343       .  A
N357       Cu365   2.067       .  S
N358        C359   1.344       .  A
N358       Cu364   2.061       .  S
C359        C360   1.383       .  A
C359        H362   1.081       .  S
C360        C361   1.384       .  A
C360        C470   1.475       .  S
C361        H363   1.082       .  S
Cu364       N367   2.061       .  S
Cu365       N375   2.067       .  S
Cu366       N368   2.086       .  S
Cu366       N374   2.085       .  S
N367        N368   1.323       .  A
N367        C371   1.344       .  A
N368        C369   1.345       .  A
C369        C370   1.386       .  A
C369        H372   1.082       .  S
C370        C371   1.380       .  A
C370        C460   1.477       .  S
C371        H373   1.082       .  S
N374        N375   1.322       .  A
N374        C378   1.349       .  A
N375        C376   1.342       .  A
C376        C377   1.380       .  A
C376        H379   1.082       .  S
C377        C378   1.385       .  A
C377        C483   1.475       .  S
C378        H380   1.082       .  S
C381        C382   1.528       .  S
C381        C387   1.539       .  S
C381        C385   1.539       .  S
C381        C450   1.534       .  S
C382        H389   1.085       .  S
C382        C383   1.367       .  D
C383        C384   1.546       .  S
C383        C493   1.496       .  S
C384        C388   1.541   1_556  S
C384        C386   1.540       .  S
C384        H390   1.106   1_556  S
C385        H391   1.080       .  S
C385        C386   1.362       .  D
C386        C443   1.476       .  S
C387        H392   1.085       .  S
C387        C388   1.368   1_556  D
C388        C480   1.491       .  S
N393        N394   1.320       .  A
N393        C397   1.342       .  A
N393       Cu401   2.061       .  S
N394        C395   1.343       .  A
N394       Cu400   2.066       .  S
C395        C396   1.387       .  A
C395        H398   1.081       .  S
C396        C397   1.386       .  A
C396        C453   1.482       .  S
C397        H399   1.082       .  S
Cu401       N411   2.061       .  S
Cu402       N404   2.084       .  S
Cu402       N410   2.084       .  S
N403        N404   1.323       .  A
N403        C407   1.344       .  A
N404        C405   1.345       .  A
C405        C406   1.385       .  A
C405        H408   1.081       .  S
C406        C407   1.382       .  A
C406        C440   1.478       .  S
C407        H409   1.083       .  S
N410        C414   1.349       .  A
N411        C412   1.341       .  A
C412        C413   1.379       .  A
C412        H415   1.081       .  S
C413        C433   1.472       .  S
C414        H416   1.082       .  S
C417        C418   1.539       .  S
C417        C423   1.528       .  S
C417        C421   1.538       .  S
C417        C473   1.531       .  S
C418        H425   1.083       .  S
C419        C420   1.549   1_545  S
C419        C510   1.499       .  S
C420        C424   1.537   1_565  S
C420        C422   1.540       .  S
C420        H426   1.106       .  S
C422        C463   1.484       .  S
C423        H428   1.087       .  S
C424        C430   1.486       .  S
C429        C430   1.408   1_565  A
C429        C434   1.403       .  A
C429        F436   1.357       .  S
C430        C431   1.408       .  A
C432        C433   1.402       .  A
C432        F437   1.358       .  S
C434        F435   1.357       .  S
C439        C440   1.406       .  A
C439        C444   1.399       .  A
C439        F446   1.358       .  S
C440        C441   1.407       .  A
C441        C442   1.399       .  A
C441        F448   1.358       .  S
C442        C443   1.403       .  A
C442        F447   1.356       .  S
C443        C444   1.404       .  A
C444        F445   1.358       .  S
C449        C450   1.414       .  A
C449        C454   1.394       .  A
C449        F456   1.358       .  S
C450        C451   1.416       .  A
C451        C452   1.398       .  A
C451        F458   1.353       .  S
C452        C453   1.405       .  A
C452        F457   1.358       .  S
C453        C454   1.404       .  A
C454        F455   1.357       .  S
C459        C460   1.404       .  A
C459        C464   1.395       .  A
C459        F466   1.358       .  S
C460        C461   1.407       .  A
C461        C462   1.401       .  A
C461        F468   1.358       .  S
C462        C463   1.406       .  A
C462        F467   1.358       .  S
C463        C464   1.408       .  A
C464        F465   1.358       .  S
C469        C470   1.401       .  A
C469        C474   1.395       .  A
C469        F476   1.358       .  S
C470        C471   1.403       .  A
C471        C472   1.399       .  A
C471        F478   1.358       .  S
C472        C473   1.416       .  A
C472        F477   1.357       .  S
C473        C474   1.417       .  A
C474        F475   1.356       .  S
C479        C480   1.411       .  A
C479        C484   1.403       .  A
C479        F486   1.357       .  S
C480        C481   1.410       .  A
C481        C482   1.396       .  A
C481        F488   1.358       .  S
C482        C483   1.402       .  A
C482        F487   1.358       .  S
C483        C484   1.404       .  A
C484        F485   1.358       .  S
C489        C490   1.414   1_455  A
C489        C494   1.398       .  A
C489        F496   1.357       .  S
C490        C491   1.409   1_655  A
C491        C492   1.396       .  A
C491        F498   1.353   1_455  S
C492        C493   1.411       .  A
C492        F497   1.358       .  S
C493        C494   1.406       .  A
C494        F495   1.354       .  S
C499        C500   1.409       .  A
C499        C504   1.396       .  A
C499        F506   1.357       .  S
C500        C501   1.411       .  A
C501        C502   1.400       .  A
C501        F508   1.357       .  S
C502        C503   1.401       .  A
C502        F507   1.358       .  S
C503        C504   1.401       .  A
C504        F505   1.358       .  S
C509        C510   1.409   1_565  A
C509        C514   1.397       .  A
C509        F516   1.356       .  S
C511        C512   1.400       .  A
C511        F518   1.357       .  S
C512        C513   1.409       .  A
C512        F517   1.356       .  S
C514        F515   1.358       .  S
C519        C520   1.409       .  A
C519        C524   1.395       .  A
C519        F526   1.358       .  S
C520        C521   1.406       .  A
C521        C522   1.400       .  A
C521        F528   1.358       .  S
C522        C523   1.408       .  A
C522        F527   1.358       .  S
C523        C524   1.404       .  A
C524        F525   1.358       .  S
C529        C530   1.400       .  A
C529        C534   1.396       .  A
C529        F536   1.358       .  S
C530        C531   1.402       .  A
C531        C532   1.398       .  A
C531        F538   1.358       .  S
C532        C533   1.417       .  A
C532        F537   1.354       .  S
C533        C534   1.416       .  A
C534        F535   1.358       .  S
C539        C540   1.404       .  A
C539        C544   1.397       .  A
C539        F546   1.358       .  S
C540        C541   1.403       .  A
C541        C542   1.397       .  A
C541        F548   1.358       .  S
C542        C543   1.405       .  A
C542        F547   1.358       .  S
C543        C544   1.402       .  A
C544        F545   1.355       .  S
C549        C550   1.415       .  A
C549        C554   1.395       .  A
C549        F556   1.357   1_556  S
C550        C551   1.415       .  A
C551        C552   1.394       .  A
C551        F558   1.357       .  S
C552        C553   1.402       .  A
C552        F557   1.358       .  S
C553        C554   1.402       .  A
C554        F555   1.358       .  S
C559        C564   1.394       .  A
C559        F566   1.358       .  S
C560        C561   1.410       .  A
C561        C562   1.401       .  A
C561        F568   1.357       .  S
C562        C563   1.401       .  A
C562        F567   1.358       .  S
C564        F565   1.358       .  S
