geometry optimzed in LAMMPS
_audit_creation_date              2020-11-30 
_audit_creation_method            'lammps2cif' 
_symmetry_space_group_name_H-M    'P1' 
_symmetry_Int_Tables_number       1 
_symmetry_cell_setting            triclinic 
loop_ 
_symmetry_equiv_pos_as_xyz 
  x,y,z 
_cell_length_a                    32.59561761 
_cell_length_b                    41.8131825345155 
_cell_length_c                    32.5865708842923 
_cell_angle_alpha                 89.36201821451625 
_cell_angle_beta                  89.17054884962485 
_cell_angle_gamma                 93.805209621027 
loop_ 
_atom_site_label 
_atom_site_type_symbol 
_atom_site_fract_x 
_atom_site_fract_y 
_atom_site_fract_z 
_atom_site_charge 
N1          N  0.80244249  0.44386879  0.84119757    -0.27800
N2          N  0.81442916  0.46000920  0.87405202    -0.35600
C3          C  0.82689733  0.43926697  0.90238035     0.00600
C4          C  0.82261786  0.40865918  0.88650952     0.06600
C5          C  0.80741873  0.41251260  0.84750423    -0.06500
H6          H  0.83910680  0.44604839  0.93196340     0.07300
H7          H  0.80029906  0.39389875  0.82542186     0.08500
Cu8        Cu  0.81617413  0.00972347  0.87724243     0.44200
Cu9        Cu  0.77983323  0.46537346  0.78955727     0.42000
Cu10       Cu  0.78497903  0.05238828  0.78632299     0.43900
N11         N  0.81995249  0.05947920  0.87135214    -0.35200
N12         N  0.80878498  0.07492158  0.83813350    -0.29400
C13         C  0.81576005  0.10663261  0.84371334    -0.05500
C14         C  0.83270878  0.11152653  0.88209476     0.06700
C15         C  0.83439083  0.08103262  0.89889692     0.00500
H16         H  0.80826010  0.12475360  0.82163087     0.08100
H17         H  0.84570134  0.07493286  0.92884093     0.07200
N18         N  0.76238082  0.02382105  0.73891053    -0.36600
N19         N  0.75938055  0.49208026  0.74112586    -0.28800
C20         C  0.74327667  0.48055931  0.70615347    -0.04000
C21         C  0.73580922  0.50615609  0.68091011     0.04600
C22         C  0.74829191  0.03333281  0.70240557     0.02700
H23         H  0.73837053  0.45536870  0.69918212     0.07800
H24         H  0.74709539  0.05803916  0.69253244     0.06600
C25         C  0.67645411  0.45706887  0.45263558     0.86000
C26         C  0.62948559  0.45847156  0.45491450    -0.54200
C27         C  0.61550666  0.98399553  0.47582911     0.08900
C28         C  0.65110772  0.00660975  0.49158468     0.19900
C29         C  0.69173428  0.48963490  0.43342603    -0.55000
C30         C  0.67754799  0.01539928  0.45320996     0.09000
C31         C  0.69143759  0.45985213  0.49703348    -0.54500
C32         C  0.67764912  0.98541921  0.51724041     0.09600
H33         H  0.60923633  0.44161301  0.43853932     0.14100
H34         H  0.64157944  0.02764817  0.50886631    -0.00100
H35         H  0.71270554  0.99270741  0.40771487     0.14400
H36         H  0.71182665  0.44345822  0.51096101     0.14200
N37         N  0.76952117  0.30605303  0.34496378    -0.27800
N38         N  0.74050933  0.28954148  0.36639322    -0.35600
C39         C  0.71627655  0.30993894  0.38478614     0.00600
C40         C  0.73078099  0.34104436  0.37492020     0.06600
C41         C  0.76496858  0.33751222  0.34984605    -0.06500
H42         H  0.69061331  0.30249634  0.40485802     0.07300
H43         H  0.78618386  0.35616090  0.33731952     0.08500
Cu44       Cu  0.73777308  0.24041493  0.37418972     0.44200
Cu45       Cu  0.81242367  0.28487337  0.30849277     0.42000
Cu46       Cu  0.80438816  0.19840873  0.30786096     0.43900
N47         N  0.74546182  0.19200128  0.38003661    -0.35200
N48         N  0.76939991  0.17654870  0.35511357    -0.29400
C49         C  0.76572681  0.14519057  0.36475667    -0.05500
C50         C  0.73875591  0.14080578  0.39776280     0.06700
C51         C  0.72631588  0.17094550  0.40663114     0.00500
H52         H  0.78047216  0.12677540  0.34806517     0.08100
H53         H  0.70337398  0.17687750  0.42912059     0.07200
N54         N  0.83602703  0.22622130  0.26326974    -0.36600
N55         N  0.83972146  0.25787721  0.26408924    -0.28800
C56         C  0.85562710  0.26894904  0.22799797    -0.04000
C57         C  0.86261905  0.24308617  0.20339340     0.04600
C58         C  0.84960199  0.21637480  0.22664719     0.02700
H59         H  0.85752628  0.29391602  0.21862822     0.07800
H60         H  0.84599703  0.19192024  0.21609690     0.06600
C61         C  0.87435953  0.29172317  0.96562443     0.86000
C62         C  0.92144569  0.29035257  0.96514275    -0.54200
C63         C  0.93481589  0.26273786  0.98128307     0.08900
C64         C  0.90017275  0.23894790  0.99739879     0.19900
C65         C  0.85797218  0.26087518  0.94443183    -0.55000
C66         C  0.87151674  0.23334436  0.96073122     0.09000
C67         C  0.86282108  0.28615274  0.01141966    -0.54500
C68         C  0.87570718  0.25841256  0.02789180     0.09600
H69         H  0.94241047  0.30913819  0.95203319     0.14100
H70         H  0.91152880  0.21656601  0.01039262    -0.00100
H71         H  0.83801377  0.26088721  0.91801852     0.14400
H72         H  0.84878714  0.30329076  0.03080933     0.14200
N73         N  0.32778088  0.20271858  0.31474692    -0.27800
N74         N  0.34393514  0.21993840  0.34496827    -0.35600
C75         C  0.36072845  0.20032341  0.37201325     0.00600
C76         C  0.35474273  0.16922139  0.35817856     0.06600
C77         C  0.33410853  0.17163896  0.32160093    -0.06500
H78         H  0.37511444  0.20803660  0.40026686     0.07300
H79         H  0.32274358  0.15211122  0.30247110     0.08500
Cu80       Cu  0.34017836  0.26902278  0.34911094     0.44200
Cu81       Cu  0.29507892  0.22241868  0.26768496     0.42000
Cu82       Cu  0.28684142  0.30920360  0.26829791     0.43900
N83         N  0.33412991  0.31797910  0.34698805    -0.35200
N84         N  0.31451614  0.33291231  0.31797808    -0.29400
C85         C  0.31701884  0.36457392  0.32583187    -0.05500
C86         C  0.33985233  0.36973843  0.36103807     0.06700
C87         C  0.34973348  0.33958937  0.37376741     0.00500
H88         H  0.30392664  0.38258916  0.30689081     0.08100
H89         H  0.36688231  0.33368359  0.40067802     0.07200
N90         N  0.26334086  0.27906770  0.22220937    -0.36600
N91         N  0.26540210  0.24755266  0.22295093    -0.28800
C92         C  0.24758180  0.23513512  0.18918323    -0.04000
C93         C  0.23420084  0.25995399  0.16562963     0.04600
C94         C  0.24461638  0.28749654  0.18746054     0.02700
H95         H  0.24576212  0.20995274  0.18163120     0.07800
H96         H  0.23924129  0.31185844  0.17859826     0.06600
C97         C  0.16396228  0.20158658  0.94591714     0.86000
C98         C  0.11684055  0.20376554  0.94966774    -0.56400
C99         C  0.10498493  0.23224862  0.96457205     0.08900
C100        C  0.14147191  0.25551357  0.97639019     0.19900
C101        C  0.17862273  0.23162544  0.92064270    -0.55000
C102        C  0.16731589  0.25988865  0.93651611     0.09000
C103        C  0.17894644  0.20808662  0.98953725    -0.54500
C104        C  0.16745846  0.23610621  0.00551201     0.09600
H105        H  0.09411786  0.18491392  0.94217902     0.14100
H106        H  0.13225178  0.27838940  0.98953359    -0.00100
H107        H  0.19815226  0.23053877  0.89353012     0.14400
H108        H  0.19741867  0.19187779  0.00644077     0.14200
N109        N  0.25870570  0.05262246  0.83743916    -0.27800
N110        N  0.24119168  0.03489205  0.86747220    -0.35600
C111        C  0.22240448  0.05401366  0.89367959     0.00600
C112        C  0.22846799  0.08525531  0.87930974     0.06600
C113        C  0.25192081  0.08355877  0.84383509    -0.06500
H114        H  0.20491027  0.04572141  0.92065288     0.07300
H115        H  0.26175421  0.10315726  0.82325693     0.08500
Cu116      Cu  0.24164247  0.98537249  0.86917243     0.44200
Cu117      Cu  0.28685551  0.03311302  0.78721708     0.42000
Cu118      Cu  0.29130355  0.44629683  0.78367003     0.43900
N119        N  0.24364040  0.43619236  0.86349826    -0.35200
N120        N  0.26171832  0.42179800  0.83287024    -0.29400
C121        C  0.25515384  0.38985070  0.83800807    -0.05500
C122        C  0.23215687  0.38386547  0.87375274     0.06700
C123        C  0.22509793  0.41388864  0.88871998     0.00500
H124        H  0.26572842  0.37227113  0.81689341     0.08100
H125        H  0.20641785  0.41930469  0.91511043     0.07200
N126        N  0.31183223  0.47735294  0.73621512    -0.36600
N127        N  0.30946900  0.00878566  0.73776871    -0.28800
C128        C  0.32289802  0.02200359  0.70191903    -0.04000
C129        C  0.33491206  0.99793126  0.67651104     0.04600
C130        C  0.32710828  0.46981722  0.69917507     0.02700
H131        H  0.32257203  0.04726441  0.69454305     0.07800
H132        H  0.33166179  0.44567458  0.68929315     0.06600
C133        C  0.38897449  0.04974256  0.44319315     0.86000
C134        C  0.43520404  0.04521925  0.44641580    -0.54200
C135        C  0.44535229  0.51744235  0.46567155     0.08900
C136        C  0.40681293  0.49563933  0.47816276     0.19900
C137        C  0.37159699  0.01979885  0.42101306    -0.55000
C138        C  0.38106143  0.49147530  0.43886692     0.09000
C139        C  0.37275072  0.04505824  0.48792690    -0.54500
C140        C  0.38198273  0.51677233  0.50589052     0.09600
H141        H  0.45798877  0.06242665  0.43307922     0.14100
H142        H  0.41325849  0.47273420  0.49341231    -0.00100
H143        H  0.35494333  0.52097564  0.39274171     0.14400
H144        H  0.35665052  0.06209818  0.50558964     0.14200
C145        C  0.38764296  0.03135368  0.57900410    -0.09600
C146        C  0.37226802  0.50969015  0.54971792     0.06600
C147        C  0.34653347  0.48298053  0.56259785    -0.03400
C148        C  0.33559139  0.47903063  0.60420120    -0.07900
C149        C  0.34978352  0.00144414  0.63340873     0.05700
C150        C  0.37719762  0.02730888  0.62053558    -0.02900
Br151      Br  0.40361204  0.05687470  0.65806743    -0.02600
H152        H  0.40828437  0.05154662  0.56946768     0.09600
H153        H  0.31464884  0.45897433  0.61349357     0.07600
Br154      Br  0.32327196  0.45251498  0.52450498    -0.03000
C155        C  0.20060221  0.32880518  0.86269038    -0.09600
C156        C  0.21544478  0.35234056  0.89016269     0.06600
C157        C  0.21334248  0.34536568  0.93265653    -0.03400
C158        C  0.19651936  0.31555508  0.94670709    -0.07900
C159        C  0.18209356  0.29184331  0.91936304     0.05700
C160        C  0.18374310  0.29891004  0.87678868    -0.02900
Br161      Br  0.16086599  0.27006091  0.83635788    -0.02600
H162        H  0.20125986  0.33393733  0.83001830     0.09600
H163        H  0.19590529  0.31062169  0.97936513     0.07600
Br164      Br  0.23609497  0.37410196  0.97321943    -0.03000
C165        C  0.15390179  0.14420935  0.91798701    -0.09600
C166        C  0.18050358  0.17083027  0.92853934     0.06600
C167        C  0.22352685  0.16815719  0.92278279    -0.03400
C168        C  0.23829690  0.14028749  0.90634202    -0.07900
C169        C  0.21148376  0.11414048  0.89642727     0.05700
C170        C  0.16900123  0.11622366  0.90234086    -0.02900
Br171      Br  0.12978765  0.08223112  0.88723415    -0.02600
H172        H  0.12112737  0.14426476  0.92157214     0.09600
H173        H  0.27111873  0.13880889  0.90187143     0.07600
Br174      Br  0.26466601  0.20125395  0.93686205    -0.03000
C175        C  0.39989355  0.43844894  0.41360362    -0.09600
C176        C  0.36933178  0.45993461  0.42025138     0.06600
C177        C  0.32891565  0.45147849  0.40725355    -0.03400
C178        C  0.32011965  0.42222994  0.38759972    -0.07900
C179        C  0.35075273  0.40069608  0.38115693     0.05700
C180        C  0.39105547  0.40908944  0.39438976    -0.02900
Br181      Br  0.43618813  0.38285734  0.38419923    -0.02600
H182        H  0.43123605  0.44498240  0.42204533     0.09600
H183        H  0.28894219  0.41597255  0.37803935     0.07600
Br184      Br  0.28394470  0.47788613  0.41751559    -0.03000
C185        C  0.38597845  0.11656634  0.36018364    -0.09600
C186        C  0.36363877  0.13944726  0.38008986     0.06600
C187        C  0.34882236  0.13304482  0.42019234    -0.03400
C188        C  0.35687325  0.10440691  0.43994332    -0.07900
C189        C  0.38001369  0.08115734  0.42080652     0.05700
C190        C  0.39443917  0.08782128  0.37995112    -0.02900
Br191      Br  0.42568387  0.05892787  0.34856864    -0.02600
H192        H  0.39716191  0.12118709  0.32906480     0.09600
H193        H  0.34378942  0.10101058  0.47017675     0.07600
Br194      Br  0.31446271  0.16138951  0.44873436    -0.03000
C195        C  0.17894499  0.23698915  0.12081127    -0.09600
C196        C  0.21483990  0.25710893  0.12495220     0.06600
C197        C  0.23323060  0.27210174  0.08966305    -0.03400
C198        C  0.21588344  0.26655034  0.05108408    -0.07900
C199        C  0.18034002  0.24613455  0.04697410     0.05700
C200        C  0.16165549  0.23147188  0.08221828    -0.02900
Br201      Br  0.11361424  0.20258808  0.07863005    -0.02600
H202        H  0.16477619  0.22503206  0.14761231     0.09600
H203        H  0.23155576  0.27673650  0.02397837     0.07600
Br204      Br  0.28465066  0.29711639  0.09174834    -0.03000
C205        C  0.99086701  0.23878445  0.94333283    -0.09600
C206        C  0.97818250  0.25484930  0.97819374     0.06600
C207        C  0.00722146  0.26434003  0.00791842    -0.03400
C208        C  0.04811548  0.25637166  0.00326186    -0.07900
C209        C  0.06106722  0.23996395  0.96843556     0.05700
C210        C  0.03195597  0.23197292  0.93765574    -0.02900
Br211      Br  0.04633623  0.21510033  0.88512484    -0.02600
H212        H  0.96883724  0.23248401  0.91966103     0.09600
H213        H  0.06986318  0.26317071  0.02693936     0.07600
Br214      Br  0.99286824  0.28927599  0.05433601    -0.03000
C215        C  0.90461812  0.24156487  0.09454883    -0.09600
C216        C  0.87051447  0.25048318  0.07226933     0.06600
C217        C  0.83300522  0.25415986  0.09341695    -0.03400
C218        C  0.83115392  0.25127794  0.13612640    -0.07900
C219        C  0.86592578  0.24430708  0.15840089     0.05700
C220        C  0.90270168  0.23885164  0.13741612    -0.02900
Br221      Br  0.95141418  0.22941280  0.16619768    -0.02600
H222        H  0.93330474  0.23785148  0.07880378     0.09600
H223        H  0.80239719  0.25459129  0.15213690     0.07600
Br224      Br  0.78272072  0.26141120  0.06579318    -0.03000
C225        C  0.56191752  0.02403211  0.47809120    -0.09600
C226        C  0.57131815  0.99173163  0.47798720     0.06600
C227        C  0.53863111  0.46806114  0.47941378    -0.03400
C228        C  0.49815780  0.47689591  0.47551682    -0.07900
C229        C  0.48884706  0.50923300  0.47313863     0.05700
C230        C  0.52130493  0.03285775  0.47794936    -0.02900
Br231      Br  0.51392309  0.07702804  0.49026587    -0.02600
H232        H  0.58614326  0.04297013  0.47844725     0.09600
H233        H  0.47408180  0.45796028  0.47476769     0.07600
Br234      Br  0.54528523  0.42348658  0.49055912    -0.03000
C235        C  0.70262081  0.08833060  0.38552311    -0.09600
C236        C  0.72071907  0.10987875  0.41357482     0.06600
C237        C  0.72168345  0.10120980  0.45542180    -0.03400
C238        C  0.70610050  0.07063620  0.46821062    -0.07900
C239        C  0.68938011  0.04863076  0.43974870     0.05700
C240        C  0.68648395  0.05810677  0.39827733    -0.02900
Br241      Br  0.65914560  0.03152325  0.35794610    -0.02600
H242        H  0.70077242  0.09517424  0.35346091     0.09600
H243        H  0.70841155  0.06365891  0.50016142     0.07600
Br244      Br  0.74661817  0.12921572  0.49553340    -0.03000
C245        C  0.70702942  0.42819883  0.39132125    -0.09600
C246        C  0.68934866  0.42679692  0.43116447     0.06600
C247        C  0.68204410  0.39614630  0.44992038    -0.03400
C248        C  0.69605178  0.36904078  0.43107352    -0.07900
C249        C  0.71573180  0.37085507  0.39243983     0.05700
C250        C  0.71983602  0.40081906  0.37190962    -0.02900
Br251      Br  0.73888769  0.40621494  0.31603549    -0.02600
H252        H  0.70970398  0.45021954  0.37374246     0.09600
H253        H  0.69156104  0.34631105  0.44724512     0.07600
Br254      Br  0.65231404  0.38869591  0.50096811    -0.03000
C255        C  0.83517332  0.14603956  0.94400186    -0.09600
C256        C  0.84431597  0.14253134  0.90205398     0.06600
C257        C  0.86393246  0.16880913  0.88024224    -0.03400
C258        C  0.87239876  0.19798907  0.90003269    -0.07900
C259        C  0.86244229  0.20163142  0.94167113     0.05700
C260        C  0.84402027  0.17521301  0.96383912    -0.02900
Br261      Br  0.82774523  0.17814138  0.02038165    -0.02600
H262        H  0.82010493  0.12620860  0.96128048     0.09600
H263        H  0.88749138  0.21791804  0.88291882     0.07600
Br264      Br  0.88300875  0.16598826  0.82446751    -0.03000
C265        C  0.85909863  0.35831156  0.88503262    -0.09600
C266        C  0.83384694  0.37854642  0.90623989     0.06600
C267        C  0.81959646  0.36961576  0.94586002    -0.03400
C268        C  0.83228411  0.34172524  0.96445220    -0.07900
C269        C  0.85969194  0.32193829  0.94448357     0.05700
C270        C  0.87184870  0.33025750  0.90341952    -0.02900
Br271      Br  0.90525463  0.30437967  0.86979572    -0.02600
H272        H  0.86941496  0.36457328  0.85404169     0.09600
H273        H  0.81910897  0.33566227  0.99419291     0.07600
Br274      Br  0.77999263  0.39325765  0.97482694    -0.03000
C275        C  0.72835896  0.01038685  0.56494961    -0.09600
C276        C  0.69052002  0.99326182  0.55916090     0.06600
C277        C  0.66675273  0.48212871  0.59338099    -0.03400
C278        C  0.68146879  0.48737229  0.63297494    -0.07900
C279        C  0.71969248  0.00423581  0.63878695     0.05700
C280        C  0.74303546  0.01606857  0.60449518    -0.02900
Br281      Br  0.79654431  0.03752215  0.60980399    -0.02600
H282        H  0.74697701  0.01860761  0.53859992     0.09600
H283        H  0.66338217  0.47796946  0.65909837     0.07600
Br284      Br  0.61462466  0.45877720  0.58697900    -0.03000
N285        N  0.80263809  0.94383905  0.84083882    -0.27800
N286        N  0.81460889  0.95997440  0.87370366    -0.35600
C287        C  0.82694267  0.93921508  0.90208200     0.00600
C288        C  0.82259394  0.90859889  0.88624046     0.06600
C289        C  0.80749630  0.91246810  0.84719216    -0.06500
H290        H  0.83912751  0.94599030  0.93167716     0.07300
H291        H  0.80037208  0.89385545  0.82510932     0.08500
Cu292      Cu  0.81578296  0.50973878  0.87764623     0.44200
Cu293      Cu  0.78018950  0.96537914  0.78912905     0.42000
Cu294      Cu  0.78421387  0.55237388  0.78684516     0.43900
N295        N  0.81925558  0.55948774  0.87185105    -0.35200
N296        N  0.80792354  0.57492550  0.83869363    -0.29400
C297        C  0.81478652  0.60664100  0.84431227    -0.05500
C298        C  0.83184836  0.61153947  0.88264518     0.06700
C299        C  0.83369831  0.58104466  0.89938789     0.00500
H300        H  0.80719296  0.62475805  0.82226486     0.08100
H301        H  0.84517849  0.57494449  0.92926178     0.07200
N302        N  0.76186479  0.52377065  0.73935055    -0.36600
N303        N  0.75976021  0.99213055  0.74071058    -0.28800
C304        C  0.74348872  0.98063976  0.70579636    -0.04000
C305        C  0.73604879  0.00625441  0.68056969     0.04600
C306        C  0.74785516  0.53325388  0.70280004     0.02700
H307        H  0.73843515  0.95545444  0.69885442     0.07800
H308        H  0.74658481  0.55795440  0.69292928     0.06600
C309        C  0.67599326  0.95696646  0.45255882     0.86000
C310        C  0.62903395  0.95836454  0.45494377    -0.54200
C311        C  0.61591114  0.48408687  0.47580524     0.08900
C312        C  0.65148344  0.50669366  0.49164756     0.19900
C313        C  0.69123185  0.98952089  0.43329124    -0.55000
C314        C  0.67801039  0.51550367  0.45333223     0.09000
C315        C  0.69109238  0.95978226  0.49691757    -0.54500
C316        C  0.67795576  0.48547707  0.51734676     0.09600
H317        H  0.60875250  0.94150662  0.43860364     0.14100
H318        H  0.64192555  0.52772380  0.50892649    -0.00100
H319        H  0.71324884  0.49284615  0.40788959     0.14400
H320        H  0.71154479  0.94341582  0.51080020     0.14200
N321        N  0.76900702  0.80613118  0.34463933    -0.27800
N322        N  0.74010947  0.78954362  0.36612832    -0.35600
C323        C  0.71576940  0.80986764  0.38451747     0.00600
C324        C  0.73008152  0.84100144  0.37457284     0.06600
C325        C  0.76426096  0.83756953  0.34945642    -0.06500
H326        H  0.69020080  0.80236456  0.40467874     0.07300
H327        H  0.78536512  0.85628416  0.33690112     0.08500
Cu328      Cu  0.73775728  0.74043864  0.37405741     0.44200
Cu329      Cu  0.81215777  0.78505676  0.30836897     0.42000
Cu330      Cu  0.80498038  0.69858040  0.30808779     0.43900
N331        N  0.74579686  0.69208950  0.38008215    -0.35200
N332        N  0.76993001  0.67668476  0.35529930    -0.29400
C333        C  0.76639559  0.64533715  0.36502921    -0.05500
C334        C  0.73931955  0.64091649  0.39794932     0.06700
C335        C  0.72666926  0.67101876  0.40666876     0.00500
H336        H  0.78129184  0.62694613  0.34843806     0.08100
H337        H  0.70358294  0.67690433  0.42903246     0.07200
N338        N  0.83661282  0.72646173  0.26353167    -0.36600
N339        N  0.83998200  0.75812494  0.26425383    -0.28800
C340        C  0.85589589  0.76922034  0.22818237    -0.04000
C341        C  0.86322322  0.74337619  0.20366544     0.04600
C342        C  0.85041650  0.71663840  0.22697985     0.02700
H343        H  0.85750556  0.79416410  0.21872273     0.07800
H344        H  0.84703374  0.69216238  0.21647626     0.06600
C345        C  0.87426764  0.79176007  0.96567666     0.86000
C346        C  0.92134169  0.79030849  0.96501964    -0.54200
C347        C  0.93469736  0.76271223  0.98122619     0.08900
C348        C  0.90005581  0.73901845  0.99757266     0.19900
C349        C  0.85769940  0.76087846  0.94469331    -0.55000
C350        C  0.87123155  0.73336369  0.96104653     0.09000
C351        C  0.86291934  0.78634459  0.01154095    -0.54500
C352        C  0.87577967  0.75861332  0.02808437     0.09600
H353        H  0.94230793  0.80904101  0.95179035     0.14100
H354        H  0.91140563  0.71664723  0.01060154    -0.00100
H355        H  0.83764326  0.76085561  0.91835250     0.14400
H356        H  0.84905154  0.80359209  0.03089541     0.14200
N357        N  0.32774689  0.70262791  0.31490561    -0.27800
N358        N  0.34409709  0.71988648  0.34499811    -0.35600
C359        C  0.36107176  0.70030774  0.37196206     0.00600
C360        C  0.35500395  0.66918643  0.35821868     0.06600
C361        C  0.33412644  0.67155644  0.32177254    -0.06500
H362        H  0.37562208  0.70805780  0.40011870     0.07300
H363        H  0.32263272  0.65200078  0.30275421     0.08500
Cu364      Cu  0.34034372  0.76897209  0.34914820     0.44200
Cu365      Cu  0.29476056  0.72226525  0.26797176     0.42000
Cu366      Cu  0.28666470  0.80904514  0.26851313     0.43900
N367        N  0.33420164  0.81791747  0.34703821    -0.35200
N368        N  0.31446102  0.83280666  0.31808353    -0.29400
C369        C  0.31690709  0.86447009  0.32591490    -0.05500
C370        C  0.33983275  0.86968678  0.36104996     0.06700
C371        C  0.34982933  0.83956120  0.37376413     0.00500
H372        H  0.30369859  0.88245175  0.30701198     0.08100
H373        H  0.36705571  0.83369176  0.40063735     0.07200
N374        N  0.26305495  0.77892073  0.22246883    -0.36600
N375        N  0.26504306  0.74739913  0.22322737    -0.28800
C376        C  0.24720191  0.73500296  0.18945144    -0.04000
C377        C  0.23388908  0.75984406  0.16587827     0.04600
C378        C  0.24436485  0.78737416  0.18771074     0.02700
H379        H  0.24534530  0.70982185  0.18189260     0.07800
H380        H  0.23907404  0.81174824  0.17883154     0.06600
C381        C  0.16388430  0.70153123  0.94607312     0.86000
C382        C  0.11675874  0.70370853  0.94979165    -0.56400
C383        C  0.10488406  0.73220199  0.96464955     0.08900
C384        C  0.14136430  0.75548085  0.97646231     0.19900
C385        C  0.17853897  0.73155355  0.92076034    -0.55000
C386        C  0.16722312  0.75982790  0.93659207     0.09000
C387        C  0.17885434  0.70807322  0.98968999    -0.54500
C388        C  0.16734221  0.73610021  0.00562959     0.09600
H389        H  0.09404889  0.68485244  0.94228728     0.14100
H390        H  0.13213791  0.77836831  0.98956639    -0.00100
H391        H  0.19805604  0.73044979  0.89364140     0.14400
H392        H  0.19732164  0.69187890  0.00662291     0.14200
N393        N  0.25853709  0.55262315  0.83734365    -0.27800
N394        N  0.24129832  0.53489658  0.86752386    -0.35600
C395        C  0.22257111  0.55399804  0.89380382     0.00600
C396        C  0.22838698  0.58522664  0.87933372     0.06600
C397        C  0.25162984  0.58354231  0.84371594    -0.06500
H398        H  0.20530081  0.54569988  0.92091135     0.07300
H399        H  0.26126327  0.60313586  0.82305336     0.08500
Cu400      Cu  0.24204828  0.48540042  0.86934741     0.44200
Cu401      Cu  0.28660053  0.53310323  0.78705677     0.42000
Cu402      Cu  0.29093192  0.94627706  0.78352467     0.43900
N403        N  0.24315472  0.93615720  0.86328492    -0.35200
N404        N  0.26125429  0.92176546  0.83266782    -0.29400
C405        C  0.25471971  0.88981628  0.83781838    -0.05500
C406        C  0.23172617  0.88382640  0.87356460     0.06700
C407        C  0.22462961  0.91384905  0.88851411     0.00500
H408        H  0.26534754  0.87223700  0.81673295     0.08100
H409        H  0.20597253  0.91925932  0.91492358     0.07200
N410        N  0.31164171  0.97736046  0.73616264    -0.36600
N411        N  0.30942824  0.50876150  0.73770446    -0.28800
C412        C  0.32283545  0.52195342  0.70183140    -0.04000
C413        C  0.33506517  0.49788550  0.67653136     0.04600
C414        C  0.32679827  0.96983867  0.69906941     0.02700
H415        H  0.32237039  0.54719073  0.69436778     0.07800
H416        H  0.33115133  0.94568938  0.68908909     0.06600
C417        C  0.38932129  0.54972474  0.44326570     0.86000
C418        C  0.43554575  0.54519535  0.44648511    -0.54200
C419        C  0.44501251  0.01747117  0.46561918     0.08900
C420        C  0.40647233  0.99567532  0.47812105     0.19900
C421        C  0.37193449  0.51978939  0.42107208    -0.55000
C422        C  0.38073366  0.99149409  0.43882262     0.09000
C423        C  0.37308343  0.54501825  0.48799397    -0.54500
C424        C  0.38164697  0.01681874  0.50583227     0.09600
H425        H  0.45833629  0.56240860  0.43316623     0.14100
H426        H  0.41290226  0.97277560  0.49339118    -0.00100
H427        H  0.35462700  0.02097372  0.39266872     0.14400
H428        H  0.35693364  0.56203650  0.50564607     0.14200
C429        C  0.38783960  0.53133549  0.57906692    -0.09600
C430        C  0.37195425  0.00975365  0.54966044     0.06600
C431        C  0.34613133  0.98309833  0.56254244    -0.03400
C432        C  0.33522677  0.97915089  0.60415169    -0.07900
C433        C  0.35001388  0.50137764  0.63345157     0.05700
C434        C  0.37734989  0.52729139  0.62058826    -0.02900
Br435      Br  0.40358498  0.55693809  0.65813394    -0.02600
H436        H  0.40841760  0.55156941  0.56954191     0.09600
H437        H  0.31422075  0.95913464  0.61344658     0.07600
Br438      Br  0.32272348  0.95270326  0.52444180    -0.03000
C439        C  0.20029475  0.82870876  0.86262227    -0.09600
C440        C  0.21512371  0.85228916  0.89003946     0.06600
C441        C  0.21312939  0.84534109  0.93254326    -0.03400
C442        C  0.19640368  0.81551799  0.94666032    -0.07900
C443        C  0.18195935  0.79177222  0.91937143     0.05700
C444        C  0.18352881  0.79880303  0.87678560    -0.02900
Br445      Br  0.16066956  0.76988310  0.83642520    -0.02600
H446        H  0.20088761  0.83381366  0.82994399     0.09600
H447        H  0.19587665  0.81060103  0.97932389     0.07600
Br448      Br  0.23590526  0.87414097  0.97302242    -0.03000
C449        C  0.15384528  0.64408023  0.91835604    -0.09600
C450        C  0.18043318  0.67075649  0.92873994     0.06600
C451        C  0.22344888  0.66811752  0.92286325    -0.03400
C452        C  0.23821273  0.64026696  0.90635559    -0.07900
C453        C  0.21141045  0.61408736  0.89654035     0.05700
C454        C  0.16894457  0.61610369  0.90267397    -0.02900
Br455      Br  0.12974605  0.58201292  0.88785905    -0.02600
H456        H  0.12108354  0.64407659  0.92213364     0.09600
H457        H  0.27102544  0.63882650  0.90176205     0.07600
Br458      Br  0.26458877  0.70122964  0.93688345    -0.03000
C459        C  0.39970278  0.93850269  0.41357763    -0.09600
C460        C  0.36908554  0.95994663  0.42019165     0.06600
C461        C  0.32869953  0.95144136  0.40714936    -0.03400
C462        C  0.31997998  0.92217067  0.38752537    -0.07900
C463        C  0.35066293  0.90066819  0.38114090     0.05700
C464        C  0.39094482  0.90912482  0.39438570    -0.02900
Br465      Br  0.43615880  0.88296565  0.38423484    -0.02600
H466        H  0.43103058  0.94508516  0.42202429     0.09600
H467        H  0.28882108  0.91587297  0.37793907     0.07600
Br468      Br  0.28367121  0.97781719  0.41728852    -0.03000
C469        C  0.38626478  0.61653365  0.36023027    -0.09600
C470        C  0.36398186  0.63943872  0.38015724     0.06600
C471        C  0.34929625  0.63308598  0.42031722    -0.03400
C472        C  0.35736383  0.60445356  0.44007699    -0.07900
C473        C  0.38038791  0.58115575  0.42089279     0.05700
C474        C  0.39475464  0.58779868  0.38001144    -0.02900
Br475      Br  0.42598017  0.55889636  0.34862250    -0.02600
H476        H  0.39738000  0.62112708  0.32908296     0.09600
H477        H  0.34440780  0.60110976  0.47037167     0.07600
Br478      Br  0.31510751  0.66150434  0.44894613    -0.03000
C479        C  0.17860738  0.73701852  0.12096555    -0.09600
C480        C  0.21458079  0.75704040  0.12516062     0.06600
C481        C  0.23306911  0.77199967  0.08989241    -0.03400
C482        C  0.21576732  0.76648231  0.05128101    -0.07900
C483        C  0.18016336  0.74614171  0.04711472     0.05700
C484        C  0.16135257  0.73154744  0.08234278    -0.02900
Br485      Br  0.11316261  0.70282823  0.07869752    -0.02600
H486        H  0.16434208  0.72510536  0.14774951     0.09600
H487        H  0.23150697  0.77664308  0.02419581     0.07600
Br488      Br  0.28454050  0.79693763  0.09205717    -0.03000
C489        C  0.99074838  0.73867396  0.94335649    -0.09600
C490        C  0.97805897  0.75480371  0.97816280     0.06600
C491        C  0.00709635  0.76436040  0.00785740    -0.03400
C492        C  0.04799457  0.75639463  0.00323354    -0.07900
C493        C  0.06095672  0.73991905  0.96846618     0.05700
C494        C  0.03184362  0.73186197  0.93770655    -0.02900
Br495      Br  0.04622204  0.71490373  0.88522341    -0.02600
H496        H  0.96871876  0.73232470  0.91970240     0.09600
H497        H  0.06973596  0.76324752  0.02689426     0.07600
Br498      Br  0.99272457  0.78938257  0.05419033    -0.03000
C499        C  0.90477161  0.74156942  0.09464812    -0.09600
C500        C  0.87070993  0.75076881  0.07250662     0.06600
C501        C  0.83335496  0.75470834  0.09381354    -0.03400
C502        C  0.83165429  0.75183823  0.13652315    -0.07900
C503        C  0.86639286  0.74456614  0.15865738     0.05700
C504        C  0.90298095  0.73880666  0.13751942    -0.02900
Br505      Br  0.95162574  0.72888069  0.16608952    -0.02600
H506        H  0.93333991  0.73765467  0.07879393     0.09600
H507        H  0.80302090  0.75536713  0.15264655     0.07600
Br508      Br  0.78302703  0.76225736  0.06643845    -0.03000
C509        C  0.56225112  0.52407235  0.47816709    -0.09600
C510        C  0.57170086  0.49178299  0.47797467     0.06600
C511        C  0.53822406  0.96803588  0.47946911    -0.03400
C512        C  0.49776948  0.97690026  0.47555179    -0.07900
C513        C  0.48850035  0.00924542  0.47309017     0.05700
C514        C  0.52162014  0.53286121  0.47806106    -0.02900
Br515      Br  0.51415600  0.57699561  0.49051387    -0.02600
H516        H  0.58645015  0.54302875  0.47857209     0.09600
H517        H  0.47367758  0.95797575  0.47485329     0.07600
Br518      Br  0.54482772  0.92346036  0.49067333    -0.03000
C519        C  0.70321377  0.58843528  0.38566815    -0.09600
C520        C  0.72130609  0.60997252  0.41373388     0.06600
C521        C  0.72223137  0.60129911  0.45558130    -0.03400
C522        C  0.70659753  0.57073462  0.46836338    -0.07900
C523        C  0.68987310  0.54873946  0.43989003     0.05700
C524        C  0.68703504  0.55821906  0.39841166    -0.02900
Br525      Br  0.65972317  0.53164915  0.35805059    -0.02600
H526        H  0.70139645  0.59528394  0.35360492     0.09600
H527        H  0.70886959  0.56375621  0.50031728     0.07600
Br528      Br  0.74716999  0.62929622  0.49569987    -0.03000
C529        C  0.70615400  0.92808732  0.39105680    -0.09600
C530        C  0.68880988  0.92669479  0.43104328     0.06600
C531        C  0.68166182  0.89604917  0.44985201    -0.03400
C532        C  0.69559556  0.86895028  0.43092508    -0.07900
C533        C  0.71499739  0.87076956  0.39215708     0.05700
C534        C  0.71885035  0.90070856  0.37156316    -0.02900
Br535      Br  0.73735778  0.90602836  0.31550874    -0.02600
H536        H  0.70861388  0.95009596  0.37344165     0.09600
H537        H  0.69126561  0.84622396  0.44712923     0.07600
Br538      Br  0.65219631  0.88859288  0.50104695    -0.03000
C539        C  0.83472896  0.64605029  0.94456416    -0.09600
C540        C  0.84358826  0.64253936  0.90255453     0.06600
C541        C  0.86311532  0.66879951  0.88064051    -0.03400
C542        C  0.87173593  0.69797280  0.90038535    -0.07900
C543        C  0.86204383  0.70162963  0.94208043     0.05700
C544        C  0.84375192  0.67521930  0.96436265    -0.02900
Br545      Br  0.82791504  0.67815037  0.02102842    -0.02600
H546        H  0.81975976  0.62622392  0.96192864     0.09600
H547        H  0.88674741  0.71788884  0.88318310     0.07600
Br548      Br  0.88189967  0.66596487  0.82477096    -0.03000
C549        C  0.85891574  0.85816465  0.88485158    -0.09600
C550        C  0.83373776  0.87847543  0.90602498     0.06600
C551        C  0.81951716  0.86962583  0.94568562    -0.03400
C552        C  0.83221923  0.84177251  0.96436932    -0.07900
C553        C  0.85958768  0.82193295  0.94444210     0.05700
C554        C  0.87164997  0.83013445  0.90331708    -0.02900
Br555      Br  0.90489079  0.80411646  0.86971184    -0.02600
H556        H  0.86919153  0.86434865  0.85382567     0.09600
H557        H  0.81908210  0.83576547  0.99414686     0.07600
Br558      Br  0.77992167  0.89332292  0.97457922    -0.03000
C559        C  0.72839736  0.51050578  0.56527190    -0.09600
C560        C  0.69068023  0.49324717  0.55933025     0.06600
C561        C  0.66657433  0.98237717  0.59330745    -0.03400
C562        C  0.68142111  0.98766027  0.63284550    -0.07900
C563        C  0.71960330  0.50411311  0.63906935     0.05700
C564        C  0.74295737  0.51612205  0.60487380    -0.02900
Br565      Br  0.79635899  0.53771401  0.61037816    -0.02600
H566        H  0.74702591  0.51887187  0.53899522     0.09600
H567        H  0.66333081  0.97840965  0.65904584     0.07600
Br568      Br  0.61424334  0.95928180  0.58711548    -0.03000
loop_ 
_geom_bond_atom_site_label_1 
_geom_bond_atom_site_label_2 
_geom_bond_distance 
_geom_bond_site_symmetry_2 
_ccdc_geom_bond_type 
N1            N2   1.322       .  A
N1            C5   1.346       .  A
N1           Cu9   2.067       .  S
N2            C3   1.345       .  A
N2         Cu292   2.082       .  S
C3            C4   1.385       .  A
C3            H6   1.082       .  S
C4            C5   1.382       .  A
C4          C266   1.477       .  S
C5            H7   1.082       .  S
Cu8          N11   2.082       .  S
Cu8         N286   2.082   1_545  S
Cu9          N19   2.067       .  S
Cu10         N12   2.078       .  S
Cu10         N18   2.077       .  S
N11          N12   1.322       .  A
N11          C15   1.347       .  A
N12          C13   1.345       .  A
C13          C14   1.386       .  A
C13          H16   1.081       .  S
C14          C15   1.387       .  A
C14         C256   1.486       .  S
C15          H17   1.082       .  S
N18         N303   1.323   1_545  A
N18          C22   1.347       .  A
N19         N302   1.323       .  A
N19          C20   1.343       .  A
C20          C21   1.379       .  A
C20          H23   1.082       .  S
C21         C306   1.383       .  A
C21         C563   1.471       .  S
C22         C305   1.383       .  A
C22          H24   1.082       .  S
C25          C26   1.537       .  S
C25          C31   1.537       .  S
C25          C29   1.541       .  S
C25         C246   1.533       .  S
C26          H33   1.084       .  S
C26         C311   1.370       .  D
C27          C28   1.545   1_565  S
C27         C310   1.370       .  D
C27         C226   1.498       .  S
C28          C32   1.529   1_545  S
C28          C30   1.536       .  S
C28          H34   1.109       .  S
C29         H319   1.082       .  S
C29         C314   1.365       .  D
C30         C313   1.365   1_545  D
C30         C239   1.477       .  S
C31          H36   1.086       .  S
C31         C316   1.360       .  D
C32         C315   1.360       .  D
C32         C276   1.469       .  S
H35         C313   1.082       .  S
N37          N38   1.320       .  A
N37          C41   1.344       .  A
N37         Cu45   2.072       .  S
N38          C39   1.341       .  A
N38         Cu44   2.063       .  S
C39          C40   1.387       .  A
C39          H42   1.081       .  S
C40          C41   1.389       .  A
C40         C249   1.486       .  S
C41          H43   1.080       .  S
Cu44         N47   2.063       .  S
Cu45         N55   2.072       .  S
Cu46         N48   2.070       .  S
Cu46         N54   2.071       .  S
N47          N48   1.321       .  A
N47          C51   1.345       .  A
N48          C49   1.342       .  A
C49          C50   1.382       .  A
C49          H52   1.082       .  S
C50          C51   1.382       .  A
C50         C236   1.469       .  S
C51          H53   1.082       .  S
N54          N55   1.322       .  A
N54          C58   1.345       .  A
N55          C56   1.343       .  A
C56          C57   1.382       .  A
C56          H59   1.082       .  S
C57          C58   1.382       .  A
C57         C219   1.469       .  S
C58          H60   1.082       .  S
C61          C62   1.540       .  S
C61          C67   1.545   1_556  S
C61          C65   1.538       .  S
C61         C269   1.539       .  S
C62          H69   1.086       .  S
C62          C63   1.364       .  D
C63          C64   1.537       .  S
C63         C206   1.475       .  S
C64          C68   1.538   1_556  S
C64          C66   1.538       .  S
C64          H70   1.111   1_556  S
C65          H71   1.086       .  S
C65          C66   1.365       .  D
C66         C259   1.484       .  S
C67          H72   1.080       .  S
C67          C68   1.366       .  D
C68         C216   1.485       .  S
N73          N74   1.321       .  A
N73          C77   1.346       .  A
N73         Cu81   2.074       .  S
N74          C75   1.344       .  A
N74         Cu80   2.070       .  S
C75          C76   1.384       .  A
C75          H78   1.082       .  S
C76          C77   1.383       .  A
C76         C186   1.476       .  S
C77          H79   1.082       .  S
Cu80         N83   2.070       .  S
Cu81         N91   2.075       .  S
Cu82         N84   2.092       .  S
Cu82         N90   2.092       .  S
N83          N84   1.323       .  A
N83          C87   1.344       .  A
N84          C85   1.349       .  A
C85          C86   1.388       .  A
C85          H88   1.082       .  S
C86          C87   1.382       .  A
C86         C179   1.482       .  S
C87          H89   1.082       .  S
N90          N91   1.324       .  A
N90          C94   1.349       .  A
N91          C92   1.345       .  A
C92          C93   1.381       .  A
C92          H95   1.082       .  S
C93          C94   1.386       .  A
C93         C196   1.479       .  S
C94          H96   1.082       .  S
C97          C98   1.548       .  S
C97         C103   1.531       .  S
C97         C101   1.540       .  S
C97         C166   1.538       .  S
C98         H105   1.078       .  S
C98          C99   1.368       .  D
C99         C100   1.542       .  S
C99         C209   1.492       .  S
C100        C104   1.541   1_556  S
C100        C102   1.541       .  S
C100        H106   1.110       .  S
C101        H107   1.085       .  S
C101        C102   1.366       .  D
C102        C159   1.490       .  S
C103        H108   1.087   1_556  S
C103        C104   1.360   1_556  D
C104        C199   1.478       .  S
N109        N110   1.321       .  A
N109        C113   1.345       .  A
N109       Cu117   2.067       .  S
N110        C111   1.345       .  A
N110       Cu116   2.072   1_545  S
C111        C112   1.384       .  A
C111        H114   1.082       .  S
C112        C113   1.382       .  A
C112        C169   1.473       .  S
C113        H115   1.082       .  S
Cu116       N403   2.073       .  S
Cu117       N127   2.068       .  S
Cu118       N120   2.083       .  S
Cu118       N126   2.082       .  S
N119        N120   1.323       .  A
N119        C123   1.343       .  A
N119       Cu400   2.072       .  S
N120        C121   1.347       .  A
C121        C122   1.387       .  A
C121        H124   1.082       .  S
C122        C123   1.384       .  A
C122        C156   1.484       .  S
C123        H125   1.081       .  S
N126        N411   1.322       .  A
N126        C130   1.348       .  A
N127        N410   1.322   1_545  A
N127        C128   1.342       .  A
C128        C129   1.383   1_545  A
C128        H131   1.081       .  S
C129        C414   1.387       .  A
C129        C149   1.482   1_565  S
C130        C413   1.387       .  A
C130        H132   1.082       .  S
C133        C134   1.536       .  S
C133        C139   1.549       .  S
C133        C137   1.533       .  S
C133        C189   1.542       .  S
C134        H141   1.082       .  S
C134        C419   1.371       .  D
C135        C136   1.549       .  S
C135        C418   1.371       .  D
C135        C229   1.503       .  S
C136        C140   1.531       .  S
C136        C138   1.546       .  S
C136        H142   1.108       .  S
C137        H427   1.086       .  S
C137        C422   1.365   1_545  D
C138        C421   1.365       .  D
C138        C176   1.487       .  S
C139        H144   1.079       .  S
C139        C424   1.362       .  D
C140        C423   1.362       .  D
C140        C146   1.481       .  S
H143        C421   1.086       .  S
C145        C150   1.396       .  A
C145        C430   1.401       .  A
C145        H152   1.084       .  S
C146        C147   1.408       .  A
C146        C429   1.401       .  A
C147        C148   1.402       .  A
C147       Br154   1.916       .  S
C148        C433   1.406       .  A
C148        H153   1.083       .  S
C149        C150   1.412       .  A
C149        C432   1.406   1_545  A
C150       Br151   1.920       .  S
C155        C156   1.405       .  A
C155        C160   1.402       .  A
C155        H162   1.083       .  S
C156        C157   1.412       .  A
C157        C158   1.398       .  A
C157       Br164   1.920       .  S
C158        C159   1.403       .  A
C158        H163   1.081       .  S
C159        C160   1.415       .  A
C160       Br161   1.921       .  S
C165        C166   1.414       .  A
C165        C170   1.398       .  A
C165        H172   1.073       .  S
C166        C167   1.424       .  A
C167        C168   1.399       .  A
C167       Br174   1.926       .  S
C168        C169   1.397       .  A
C168        H173   1.084       .  S
C169        C170   1.404       .  A
C170       Br171   1.921       .  S
C175        C176   1.401       .  A
C175        C180   1.399       .  A
C175        H182   1.080       .  S
C176        C177   1.413       .  A
C177        C178   1.402       .  A
C177       Br184   1.921       .  S
C178        C179   1.403       .  A
C178        H183   1.083       .  S
C179        C180   1.412       .  A
C180       Br181   1.920       .  S
C185        C186   1.400       .  A
C185        C190   1.403       .  A
C185        H192   1.084       .  S
C186        C187   1.403       .  A
C187        C188   1.395       .  A
C187       Br194   1.922       .  S
C188        C189   1.414       .  A
C188        H193   1.072       .  S
C189        C190   1.424       .  A
C190       Br191   1.924       .  S
C195        C196   1.404       .  A
C195        C200   1.401       .  A
C195        H202   1.083       .  S
C196        C197   1.410       .  A
C197        C198   1.401       .  A
C197       Br204   1.918       .  S
C198        C199   1.402       .  A
C198        H203   1.083       .  S
C199        C200   1.407       .  A
C200       Br201   1.919       .  S
C205        C206   1.397       .  A
C205        C210   1.398   1_655  A
C205        H212   1.084       .  S
C206        C207   1.406   1_656  A
C207        C208   1.402       .  A
C207       Br214   1.917   1_455  S
C208        C209   1.407   1_554  A
C208        H213   1.083       .  S
C209        C210   1.418       .  A
C210       Br211   1.922       .  S
C215        C216   1.405       .  A
C215        C220   1.400       .  A
C215        H222   1.081       .  S
C216        C217   1.413       .  A
C217        C218   1.396       .  A
C217       Br224   1.921       .  S
C218        C219   1.400       .  A
C218        H223   1.084       .  S
C219        C220   1.405       .  A
C220       Br221   1.917       .  S
C225        C226   1.405   1_545  A
C225        C230   1.398       .  A
C225        H232   1.081       .  S
C226        C511   1.415       .  A
C227        C228   1.401       .  A
C227        C510   1.415       .  A
C227       Br234   1.922       .  S
C228        C229   1.407       .  A
C228        H233   1.078       .  S
C229        C514   1.418       .  A
C230        C513   1.418       .  A
C230       Br231   1.924       .  S
C235        C236   1.400       .  A
C235        C240   1.393       .  A
C235        H242   1.084       .  S
C236        C237   1.408       .  A
C237        C238   1.401       .  A
C237       Br244   1.918       .  S
C238        C239   1.404       .  A
C238        H243   1.083       .  S
C239        C240   1.410       .  A
C240       Br241   1.921       .  S
C245        C246   1.412       .  A
C245        C250   1.399       .  A
C245        H252   1.077       .  S
C246        C247   1.418       .  A
C247        C248   1.395       .  A
C247       Br254   1.925       .  S
C248        C249   1.404       .  A
C248        H253   1.082       .  S
C249        C250   1.411       .  A
C250       Br251   1.921       .  S
C255        C256   1.406       .  A
C255        C260   1.402       .  A
C255        H262   1.083       .  S
C256        C257   1.413       .  A
C257        C258   1.400       .  A
C257       Br264   1.920       .  S
C258        C259   1.403       .  A
C258        H263   1.084       .  S
C259        C260   1.409       .  A
C260       Br261   1.917   1_556  S
C265        C266   1.400       .  A
C265        C270   1.401       .  A
C265        H272   1.084       .  S
C266        C267   1.404       .  A
C267        C268   1.398       .  A
C267       Br274   1.921       .  S
C268        C269   1.414       .  A
C268        H273   1.075       .  S
C269        C270   1.423       .  A
C270       Br271   1.925       .  S
C275        C276   1.401   1_545  A
C275        C280   1.398       .  A
C275        H282   1.084       .  S
C276        C561   1.404       .  A
C277        C278   1.398       .  A
C277        C560   1.404       .  A
C277       Br284   1.918       .  S
C278        C563   1.403       .  A
C278        H283   1.084       .  S
C279        C280   1.409       .  A
C279        C562   1.403   1_545  A
C279        C305   1.471       .  S
C280       Br281   1.919       .  S
N285        N286   1.322       .  A
N285        C289   1.346       .  A
N285       Cu293   2.068       .  S
N286        C287   1.345       .  A
C287        C288   1.385       .  A
C287        H290   1.082       .  S
C288        C289   1.383       .  A
C288        C550   1.478       .  S
C289        H291   1.082       .  S
Cu292       N295   2.082       .  S
Cu293       N303   2.067       .  S
Cu294       N296   2.078       .  S
Cu294       N302   2.077       .  S
N295        N296   1.322       .  A
N295        C299   1.347       .  A
N296        C297   1.345       .  A
C297        C298   1.386       .  A
C297        H300   1.081       .  S
C298        C299   1.387       .  A
C298        C540   1.486       .  S
C299        H301   1.082       .  S
N302        C306   1.347       .  A
N303        C304   1.343       .  A
C304        C305   1.379   1_565  A
C304        H307   1.082       .  S
C306        H308   1.082       .  S
C309        C310   1.537       .  S
C309        C315   1.537       .  S
C309        C313   1.541       .  S
C309        C530   1.533       .  S
C310        H317   1.084       .  S
C311        C312   1.545       .  S
C311        C510   1.498       .  S
C312        C316   1.529       .  S
C312        C314   1.536       .  S
C312        H318   1.109       .  S
C314        C523   1.477       .  S
C315        H320   1.086       .  S
C316        C560   1.469       .  S
N321        N322   1.320       .  A
N321        C325   1.344       .  A
N321       Cu329   2.072       .  S
N322        C323   1.341       .  A
N322       Cu328   2.063       .  S
C323        C324   1.387       .  A
C323        H326   1.081       .  S
C324        C325   1.389       .  A
C324        C533   1.486       .  S
C325        H327   1.080       .  S
Cu328       N331   2.063       .  S
Cu329       N339   2.071       .  S
Cu330       N332   2.071       .  S
Cu330       N338   2.071       .  S
N331        N332   1.321       .  A
N331        C335   1.345       .  A
N332        C333   1.342       .  A
C333        C334   1.382       .  A
C333        H336   1.082       .  S
C334        C335   1.381       .  A
C334        C520   1.469       .  S
C335        H337   1.082       .  S
N338        N339   1.322       .  A
N338        C342   1.345       .  A
N339        C340   1.343       .  A
C340        C341   1.382       .  A
C340        H343   1.082       .  S
C341        C342   1.383       .  A
C341        C503   1.469       .  S
C342        H344   1.082       .  S
C345        C346   1.539       .  S
C345        C351   1.545   1_556  S
C345        C349   1.538       .  S
C345        C553   1.539       .  S
C346        H353   1.086       .  S
C346        C347   1.364       .  D
C347        C348   1.537       .  S
C347        C490   1.475       .  S
C348        C352   1.539   1_556  S
C348        C350   1.538       .  S
C348        H354   1.111   1_556  S
C349        H355   1.086       .  S
C349        C350   1.365       .  D
C350        C543   1.484       .  S
C351        H356   1.080       .  S
C351        C352   1.367       .  D
C352        C500   1.485       .  S
N357        N358   1.321       .  A
N357        C361   1.346       .  A
N357       Cu365   2.075       .  S
N358        C359   1.344       .  A
N358       Cu364   2.070       .  S
C359        C360   1.384       .  A
C359        H362   1.082       .  S
C360        C361   1.383       .  A
C360        C470   1.476       .  S
C361        H363   1.082       .  S
Cu364       N367   2.070       .  S
Cu365       N375   2.076       .  S
Cu366       N368   2.092       .  S
Cu366       N374   2.092       .  S
N367        N368   1.323       .  A
N367        C371   1.344       .  A
N368        C369   1.348       .  A
C369        C370   1.388       .  A
C369        H372   1.082       .  S
C370        C371   1.382       .  A
C370        C463   1.482       .  S
C371        H373   1.082       .  S
N374        N375   1.324       .  A
N374        C378   1.349       .  A
N375        C376   1.345       .  A
C376        C377   1.382       .  A
C376        H379   1.082       .  S
C377        C378   1.386       .  A
C377        C480   1.479       .  S
C378        H380   1.082       .  S
C381        C382   1.548       .  S
C381        C387   1.531       .  S
C381        C385   1.540       .  S
C381        C450   1.538       .  S
C382        H389   1.078       .  S
C382        C383   1.368       .  D
C383        C384   1.542       .  S
C383        C493   1.492       .  S
C384        C388   1.541   1_556  S
C384        C386   1.541       .  S
C384        H390   1.110       .  S
C385        H391   1.085       .  S
C385        C386   1.366       .  D
C386        C443   1.490       .  S
C387        H392   1.087   1_556  S
C387        C388   1.360   1_556  D
C388        C483   1.478       .  S
N393        N394   1.321       .  A
N393        C397   1.345       .  A
N393       Cu401   2.067       .  S
N394        C395   1.345       .  A
N394       Cu400   2.072       .  S
C395        C396   1.384       .  A
C395        H398   1.082       .  S
C396        C397   1.382       .  A
C396        C453   1.474       .  S
C397        H399   1.082       .  S
Cu401       N411   2.068       .  S
Cu402       N404   2.083       .  S
Cu402       N410   2.082       .  S
N403        N404   1.323       .  A
N403        C407   1.343       .  A
N404        C405   1.347       .  A
C405        C406   1.387       .  A
C405        H408   1.082       .  S
C406        C407   1.384       .  A
C406        C440   1.484       .  S
C407        H409   1.081       .  S
N410        C414   1.348       .  A
N411        C412   1.342       .  A
C412        C413   1.383       .  A
C412        H415   1.081       .  S
C413        C433   1.482       .  S
C414        H416   1.082       .  S
C417        C418   1.536       .  S
C417        C423   1.549       .  S
C417        C421   1.533       .  S
C417        C473   1.542       .  S
C418        H425   1.082       .  S
C419        C420   1.549   1_545  S
C419        C513   1.503       .  S
C420        C424   1.531   1_565  S
C420        C422   1.546       .  S
C420        H426   1.108       .  S
C422        C460   1.487       .  S
C423        H428   1.079       .  S
C424        C430   1.481       .  S
C429        C434   1.396       .  A
C429        H436   1.084       .  S
C430        C431   1.408   1_545  A
C431        C432   1.402       .  A
C431       Br438   1.916       .  S
C432        H437   1.083       .  S
C433        C434   1.412       .  A
C434       Br435   1.920       .  S
C439        C440   1.405       .  A
C439        C444   1.402       .  A
C439        H446   1.083       .  S
C440        C441   1.412       .  A
C441        C442   1.398       .  A
C441       Br448   1.920       .  S
C442        C443   1.403       .  A
C442        H447   1.081       .  S
C443        C444   1.415       .  A
C444       Br445   1.921       .  S
C449        C450   1.414       .  A
C449        C454   1.398       .  A
C449        H456   1.073       .  S
C450        C451   1.424       .  A
C451        C452   1.399       .  A
C451       Br458   1.926       .  S
C452        C453   1.397       .  A
C452        H457   1.084       .  S
C453        C454   1.404       .  A
C454       Br455   1.921       .  S
C459        C460   1.401       .  A
C459        C464   1.399       .  A
C459        H466   1.080       .  S
C460        C461   1.413       .  A
C461        C462   1.401       .  A
C461       Br468   1.921       .  S
C462        C463   1.403       .  A
C462        H467   1.084       .  S
C463        C464   1.412       .  A
C464       Br465   1.920       .  S
C469        C470   1.400       .  A
C469        C474   1.403       .  A
C469        H476   1.084       .  S
C470        C471   1.403       .  A
C471        C472   1.395       .  A
C471       Br478   1.922       .  S
C472        C473   1.414       .  A
C472        H477   1.072       .  S
C473        C474   1.424       .  A
C474       Br475   1.924       .  S
C479        C480   1.404       .  A
C479        C484   1.401       .  A
C479        H486   1.083       .  S
C480        C481   1.410       .  A
C481        C482   1.401       .  A
C481       Br488   1.918       .  S
C482        C483   1.402       .  A
C482        H487   1.083       .  S
C483        C484   1.407       .  A
C484       Br485   1.919       .  S
C489        C490   1.397       .  A
C489        C494   1.398   1_655  A
C489        H496   1.084       .  S
C490        C491   1.406   1_656  A
C491        C492   1.402       .  A
C491       Br498   1.917   1_455  S
C492        C493   1.407   1_554  A
C492        H497   1.083       .  S
C493        C494   1.418       .  A
C494       Br495   1.922       .  S
C499        C500   1.405       .  A
C499        C504   1.401       .  A
C499        H506   1.081       .  S
C500        C501   1.413       .  A
C501        C502   1.396       .  A
C501       Br508   1.921       .  S
C502        C503   1.400       .  A
C502        H507   1.084       .  S
C503        C504   1.405       .  A
C504       Br505   1.917       .  S
C509        C510   1.405       .  A
C509        C514   1.398       .  A
C509        H516   1.081       .  S
C511        C512   1.400       .  A
C511       Br518   1.922       .  S
C512        C513   1.407   1_565  A
C512        H517   1.078       .  S
C514       Br515   1.924       .  S
C519        C520   1.400       .  A
C519        C524   1.393       .  A
C519        H526   1.084       .  S
C520        C521   1.408       .  A
C521        C522   1.401       .  A
C521       Br528   1.918       .  S
C522        C523   1.404       .  A
C522        H527   1.083       .  S
C523        C524   1.410       .  A
C524       Br525   1.921       .  S
C529        C530   1.412       .  A
C529        C534   1.399       .  A
C529        H536   1.077       .  S
C530        C531   1.418       .  A
C531        C532   1.395       .  A
C531       Br538   1.925       .  S
C532        C533   1.404       .  A
C532        H537   1.082       .  S
C533        C534   1.411       .  A
C534       Br535   1.921       .  S
C539        C540   1.406       .  A
C539        C544   1.402       .  A
C539        H546   1.083       .  S
C540        C541   1.413       .  A
C541        C542   1.399       .  A
C541       Br548   1.920       .  S
C542        C543   1.403       .  A
C542        H547   1.084       .  S
C543        C544   1.409       .  A
C544       Br545   1.918   1_556  S
C549        C550   1.400       .  A
C549        C554   1.401       .  A
C549        H556   1.084       .  S
C550        C551   1.404       .  A
C551        C552   1.398       .  A
C551       Br558   1.921       .  S
C552        C553   1.414       .  A
C552        H557   1.075       .  S
C553        C554   1.423       .  A
C554       Br555   1.925       .  S
C559        C560   1.401       .  A
C559        C564   1.398       .  A
C559        H566   1.084       .  S
C561        C562   1.398       .  A
C561       Br568   1.918       .  S
C562        H567   1.084       .  S
C563        C564   1.409       .  A
C564       Br565   1.919       .  S
