geometry optimzed in LAMMPS
_audit_creation_date              2020-11-30 
_audit_creation_method            'lammps2cif' 
_symmetry_space_group_name_H-M    'P1' 
_symmetry_Int_Tables_number       1 
_symmetry_cell_setting            triclinic 
loop_ 
_symmetry_equiv_pos_as_xyz 
  x,y,z 
_cell_length_a                    58.70080371903931 
_cell_length_b                    58.32479107468694 
_cell_length_c                    44.955110618376224 
_cell_angle_alpha                 90.27038749411409 
_cell_angle_beta                  89.91068908361814 
_cell_angle_gamma                 89.99178267232669 
loop_ 
_atom_site_label 
_atom_site_type_symbol 
_atom_site_fract_x 
_atom_site_fract_y 
_atom_site_fract_z 
_atom_site_charge 
N1          N  0.28551044  0.06838295  0.65837951    -0.27520
N2          N  0.29540095  0.08485284  0.67395711    -0.35380
C3          C  0.28426907  0.08754115  0.69989078     0.00820
C4          C  0.26659944  0.07185623  0.70082340     0.06850
C5          C  0.26773670  0.06017644  0.67396946    -0.06250
H6          H  0.28870860  0.10005862  0.71673780     0.07510
H7          H  0.25677187  0.04636784  0.66660908     0.08710
Cu8        Cu  0.32431323  0.10196749  0.65993985     0.44170
Cu9        Cu  0.29799034  0.05675983  0.61785382     0.41990
Cu10       Cu  0.35550656  0.07558834  0.59936666     0.43880
N11         N  0.35518435  0.11408328  0.64434981    -0.34910
N12         N  0.36708930  0.10401649  0.62296457    -0.29160
C13         C  0.38689809  0.11532940  0.61949533    -0.05260
C14         C  0.38724005  0.13343256  0.63945610     0.06950
C15         C  0.36693190  0.13216395  0.65484206     0.00750
H16         H  0.40002852  0.11074901  0.60363018     0.08400
H17         H  0.36133143  0.14323147  0.67279748     0.07480
N18         N  0.33825023  0.04959483  0.57703330    -0.36360
N19         N  0.31688801  0.04391155  0.58253000    -0.28540
C20         C  0.31041672  0.02750779  0.56324010    -0.03770
C21         C  0.32880614  0.02186250  0.54514451     0.04840
C22         C  0.34606817  0.03653963  0.55451363     0.02930
H23         H  0.29333854  0.02074961  0.56242528     0.08030
H24         H  0.36320656  0.03763115  0.54578109     0.06870
O25         O  0.46883681  0.20452931  0.63003528    -0.73170
O26         O  0.52171098  0.24700026  0.62860187    -0.74150
O27         O  0.51691469  0.19863457  0.63127214    -0.62770
O28         O  0.47361156  0.25287577  0.62934230    -0.71180
O29         O  0.47227920  0.25182704  0.67871618    -0.70740
O30         O  0.51802670  0.20182465  0.68049266    -0.61990
O31         O  0.52060185  0.25028554  0.67784423    -0.74500
O32         O  0.46971245  0.20337581  0.67942053    -0.73280
Cu33       Cu  0.49528164  0.22571340  0.62804769     1.04560
Cu34       Cu  0.49516366  0.22687302  0.68085208     1.04330
C35         C  0.46107945  0.19699427  0.65458816     0.93020
C36         C  0.52935762  0.25558801  0.65269263     0.92160
C37         C  0.52456810  0.19211536  0.65653376     0.84310
C38         C  0.46582676  0.26042902  0.65414993     0.90580
N39         N  0.67839249  0.04801131  0.72587677    -0.27520
N40         N  0.66764913  0.06617961  0.73662173    -0.35380
C41         C  0.67861990  0.07357136  0.76108175     0.00820
C42         C  0.69703714  0.05926489  0.76616573     0.06850
C43         C  0.69647656  0.04341314  0.74315809    -0.06250
H44         H  0.67364854  0.08841113  0.77408471     0.07510
H45         H  0.70870018  0.02996515  0.73863063     0.08710
Cu46       Cu  0.63921133  0.08089226  0.71696302     0.44170
Cu47       Cu  0.66872390  0.03061996  0.68768119     0.41990
Cu48       Cu  0.62211574  0.05583153  0.64711811     0.43880
N49         N  0.61256741  0.09338759  0.69135690    -0.34910
N50         N  0.60670210  0.08439939  0.66546845    -0.29160
C51         C  0.59007245  0.09712255  0.65337010    -0.05260
C52         C  0.58484022  0.11488513  0.67276554     0.06950
C53         C  0.59963442  0.11201396  0.69654024     0.00750
H54         H  0.58315736  0.09416850  0.63141769     0.08400
H55         H  0.60126254  0.12296125  0.71591375     0.07480
N56         N  0.63954656  0.02701726  0.63301498    -0.36360
N57         N  0.65638369  0.01747060  0.64800735    -0.28540
C58         C  0.66401531  0.99911123  0.63275929    -0.03770
C59         C  0.65157783  0.99731217  0.60675032     0.04840
C60         C  0.63608700  0.01513386  0.60777401     0.02930
H61         H  0.67788699  0.98819040  0.63977058     0.08030
H62         H  0.62318410  0.01915231  0.59144981     0.06870
N63         N  0.33322105  0.43427750  0.65250317    -0.27520
N64         N  0.35071351  0.42581693  0.63749720    -0.35380
C65         C  0.35417138  0.43853903  0.61304825     0.00820
C66         C  0.33809661  0.45580499  0.61278582     0.06850
C67         C  0.32508327  0.45268956  0.63806024    -0.06250
H68         H  0.36731295  0.43537695  0.59663481     0.07510
H69         H  0.31068624  0.46288770  0.64527611     0.08710
Cu70       Cu  0.36878705  0.39721341  0.65082097     0.44170
Cu71       Cu  0.32129427  0.41999970  0.69160738     0.41990
Cu72       Cu  0.35244012  0.37081629  0.72054889     0.43880
N73         N  0.38399774  0.36803050  0.66760229    -0.34910
N74         N  0.37818732  0.35834684  0.69302925    -0.29160
C75         C  0.39070896  0.33923922  0.69663798    -0.05260
C76         C  0.40523726  0.33689699  0.67243718     0.06950
C77         C  0.40029787  0.35538876  0.65438800     0.00750
H78         H  0.38908468  0.32767998  0.71527576     0.08400
H79         H  0.40728943  0.35894850  0.63262783     0.07480
N80         N  0.32451469  0.38571323  0.74162925    -0.36360
N81         N  0.31292303  0.40314898  0.73053428    -0.28540
C82         C  0.29500444  0.40767419  0.74824605    -0.03770
C83         C  0.29554339  0.39263598  0.77181519     0.04840
C84         C  0.31436614  0.37886748  0.76695655     0.02930
H85         H  0.28233266  0.42072897  0.74402835     0.08030
H86         H  0.31978855  0.36443751  0.78022245     0.06870
N87         N  0.67141559  0.41199741  0.58512505    -0.27520
N88         N  0.65261338  0.40205276  0.57536676    -0.35380
C89         C  0.64504090  0.41336083  0.55139153     0.00820
C90         C  0.65952006  0.43160158  0.54605468     0.06850
C91         C  0.67624002  0.43001159  0.56764832    -0.06250
H92         H  0.63007312  0.40855801  0.53883689     0.07510
H93         H  0.69056836  0.44142259  0.57085101     0.08710
Cu94       Cu  0.63702926  0.37453864  0.59585527     0.44170
Cu95       Cu  0.68901063  0.40116758  0.62242211     0.41990
Cu96       Cu  0.66450894  0.35255915  0.66128883     0.43880
N97         N  0.62368165  0.34830508  0.62126448    -0.34910
N98         N  0.63405994  0.33984526  0.64487447    -0.29160
C99         C  0.62120059  0.32299281  0.65638357    -0.05260
C100        C  0.60172033  0.32105030  0.63939872     0.06950
C101        C  0.60381182  0.33724479  0.61726533     0.00750
H102        H  0.62556870  0.31310827  0.67586346     0.08400
H103        H  0.59187679  0.34065185  0.59951072     0.07480
N104        N  0.69304786  0.37025172  0.67572308    -0.36360
N105        N  0.70204740  0.38786919  0.66151441    -0.28540
C106        C  0.71990214  0.39581632  0.67715844    -0.03770
C107        C  0.72202316  0.38280023  0.70264436     0.04840
C108        C  0.70486319  0.36659856  0.70084950     0.02930
H109        H  0.73027691  0.41031836  0.67076899     0.08030
H110        H  0.70122501  0.35309304  0.71656484     0.06870
N111        N  0.30774619  0.90121613  0.33442864    -0.27520
N112        N  0.31929943  0.88392227  0.32268189    -0.35380
C113        C  0.30862263  0.87678909  0.29786701     0.00820
C114        C  0.28929300  0.89001303  0.29405868     0.06850
C115        C  0.28938173  0.90545721  0.31748977    -0.06250
H116        H  0.31425853  0.86269677  0.28395280     0.07510
H117        H  0.27711811  0.91891284  0.32183781     0.08710
Cu118      Cu  0.34828708  0.86978515  0.34161026     0.44170
Cu119      Cu  0.31713492  0.91840091  0.37292653     0.41990
Cu120      Cu  0.36601618  0.89584590  0.41084211     0.43880
N121        N  0.37432772  0.85694726  0.36791108    -0.34910
N122        N  0.38018962  0.86617661  0.39366225    -0.29160
C123        C  0.39624692  0.85312456  0.40641656    -0.05260
C124        C  0.40123451  0.83496265  0.38753070     0.06950
C125        C  0.38677036  0.83786861  0.36343506     0.00750
H126        H  0.40305537  0.85630597  0.42836218     0.08400
H127        H  0.38516726  0.82676254  0.34420788     0.07480
N128        N  0.34914299  0.92521120  0.42430633    -0.36360
N129        N  0.33078471  0.93320368  0.41088043    -0.28540
C130        C  0.32316316  0.95169493  0.42586512    -0.03770
C131        C  0.33766804  0.95562088  0.44950624     0.04840
C132        C  0.35388217  0.93851806  0.44798822     0.02930
H133        H  0.30810251  0.96140434  0.42014054     0.08030
H134        H  0.36769471  0.93557049  0.46341215     0.06870
O135        O  0.47077493  0.75021335  0.37872214    -0.73170
O136        O  0.51668824  0.70003136  0.38088478    -0.74150
O137        O  0.46824375  0.70180422  0.38040260    -0.62770
O138        O  0.51957013  0.74821053  0.38034837    -0.71180
O139        O  0.51885489  0.74842304  0.42976641    -0.70740
O140        O  0.46709060  0.70420380  0.42971915    -0.61990
O141        O  0.51550701  0.69974003  0.43027747    -0.74500
O142        O  0.47071369  0.75244194  0.42806820    -0.73280
Cu143      Cu  0.49382926  0.72504170  0.37835479     1.04560
Cu144      Cu  0.49303173  0.72620179  0.43119372     1.04330
C145        C  0.46339148  0.75919587  0.40279965     0.93020
C146        C  0.52341183  0.69196578  0.40565849     0.92160
C147        C  0.45939973  0.69610927  0.40533079     0.84310
C148        C  0.52739397  0.75532698  0.40529845     0.90580
N149        N  0.66872639  0.91116757  0.47259785    -0.27520
N150        N  0.65215542  0.89910933  0.48491103    -0.35380
C151        C  0.64596046  0.90922128  0.51062601     0.00820
C152        C  0.65938984  0.92846247  0.51479347     0.06850
C153        C  0.67345611  0.92928029  0.49011191    -0.06250
H154        H  0.63225543  0.90332903  0.52476921     0.07510
H155        H  0.68620073  0.94212766  0.48521680     0.08710
Cu156      Cu  0.63808279  0.86989151  0.46595921     0.44170
Cu157      Cu  0.68455703  0.90258860  0.43281785     0.41990
Cu158      Cu  0.66718480  0.84842707  0.40113441     0.43880
N159        N  0.62657237  0.84220361  0.44106613    -0.34910
N160        N  0.63717233  0.83447468  0.41710785    -0.29160
C161        C  0.62463058  0.81772251  0.40461420    -0.05260
C162        C  0.60528909  0.81441730  0.42179319     0.06950
C163        C  0.60709353  0.83041554  0.44462085     0.00750
H164        H  0.62881323  0.80946134  0.38373671     0.08400
H165        H  0.59485770  0.83365658  0.46216660     0.07480
N166        N  0.69399458  0.86776014  0.38495462    -0.36360
N167        N  0.69954940  0.88820887  0.39534179    -0.28540
C168        C  0.71626773  0.89694442  0.37833087    -0.03770
C169        C  0.72151207  0.88124775  0.35600897     0.04840
C170        C  0.70727669  0.86274672  0.36147143     0.02930
H171        H  0.72389855  0.91361593  0.38185875     0.08030
H172        H  0.70665516  0.84657644  0.34972781     0.06870
N173        N  0.28382265  0.56642688  0.40635742    -0.27520
N174        N  0.29231648  0.58416677  0.39188811    -0.35380
C175        C  0.28040490  0.58732660  0.36674008     0.00820
C176        C  0.26369652  0.57065410  0.36505511     0.06850
C177        C  0.26616540  0.55787789  0.39076239    -0.06250
H178        H  0.28377229  0.60075763  0.35081932     0.07510
H179        H  0.25625244  0.54307590  0.39723736     0.08710
Cu180      Cu  0.32077890  0.60235330  0.40540487     0.44170
Cu181      Cu  0.29784162  0.55383694  0.44548258     0.41990
Cu182      Cu  0.35384013  0.57686912  0.46383101     0.43880
N183        N  0.35210540  0.61489290  0.41884782    -0.34910
N184        N  0.36469328  0.60499636  0.43950171    -0.29160
C185        C  0.38465498  0.61620842  0.44166494    -0.05260
C186        C  0.38443653  0.63407936  0.42159201     0.06950
C187        C  0.36359448  0.63279250  0.40749462     0.00750
H188        H  0.39828764  0.61170041  0.45671439     0.08400
H189        H  0.35745892  0.64369286  0.38982548     0.07480
N190        N  0.33786018  0.55095554  0.48748985    -0.36360
N191        N  0.31723262  0.54312346  0.48151911    -0.28540
C192        C  0.31183549  0.52690041  0.50149306    -0.03770
C193        C  0.32987375  0.52439610  0.52113875     0.04840
C194        C  0.34618732  0.53976245  0.51118001     0.02930
H195        H  0.29597109  0.51746306  0.50152135     0.08030
H196        H  0.36319701  0.54223012  0.51976217     0.06870
N197        N  0.67780620  0.54783119  0.33199229    -0.27520
N198        N  0.66848869  0.56727580  0.32313260    -0.35380
C199        C  0.67999104  0.57503555  0.29933318     0.00820
C200        C  0.69711526  0.55955328  0.29263419     0.06850
C201        C  0.69532387  0.54258593  0.31388917    -0.06250
H202        H  0.67637114  0.59094886  0.28800536     0.07510
H203        H  0.70649930  0.52801269  0.31676020     0.08710
Cu204      Cu  0.64135176  0.58310164  0.34458918     0.44170
Cu205      Cu  0.66789998  0.53052368  0.36997356     0.41990
Cu206      Cu  0.62524630  0.55929093  0.41521824     0.43880
N207        N  0.61633243  0.59714093  0.37178155    -0.34910
N208        N  0.61088601  0.58875417  0.39807702    -0.29160
C209        C  0.59518151  0.60238798  0.41088417    -0.05260
C210        C  0.59057340  0.62041181  0.39184069     0.06950
C211        C  0.60403855  0.61620345  0.36699669     0.00750
H212        H  0.58789947  0.59953444  0.43267529     0.08400
H213        H  0.60476500  0.62602121  0.34669524     0.07480
N214        N  0.64193347  0.52965994  0.42772442    -0.36360
N215        N  0.65729640  0.51897423  0.41120990    -0.28540
C216        C  0.66482561  0.50045332  0.42594481    -0.03770
C217        C  0.65384074  0.49960919  0.45320975     0.04840
C218        C  0.63928708  0.51826944  0.45337224     0.02930
H219        H  0.67710618  0.48836114  0.41716262     0.08030
H220        H  0.62770517  0.52332218  0.47096607     0.06870
O221        O  0.97418935  0.75166745  0.18004468    -0.73170
O222        O  0.01673508  0.69915300  0.18083066    -0.74150
O223        O  0.02224450  0.74741209  0.17962607    -0.62770
O224        O  0.96884002  0.70348354  0.17965437    -0.71180
O225        O  0.97036787  0.70264479  0.13028894    -0.70740
O226        O  0.02117630  0.74756526  0.13022549    -0.61990
O227        O  0.01838519  0.69864279  0.13155923    -0.74500
O228        O  0.97298696  0.75149051  0.13092599    -0.73280
Cu229      Cu  0.99551836  0.72546933  0.18171768     1.04560
Cu230      Cu  0.99576151  0.72509417  0.12897965     1.04330
C231        C  0.96651256  0.75998639  0.15588159     0.93020
C232        C  0.02409158  0.69023006  0.15677652     0.92160
C233        C  0.02978920  0.75456554  0.15460868     0.84310
C234        C  0.96161546  0.69586231  0.15465087     0.90580
N235        N  0.20470543  0.88476727  0.15682241    -0.27520
N236        N  0.19439034  0.86896621  0.17295260    -0.35380
C237        C  0.20608999  0.86589443  0.19828055     0.00820
C238        C  0.22482092  0.88026746  0.19797440     0.06850
C239        C  0.22331375  0.89212759  0.17144688    -0.06250
H240        H  0.20121587  0.85417311  0.21575458     0.07510
H241        H  0.23444511  0.90564880  0.16376578     0.08710
Cu242      Cu  0.16448778  0.85281695  0.16051959     0.44170
Cu243      Cu  0.19205205  0.89671786  0.11678399     0.41990
Cu244      Cu  0.13758649  0.87324728  0.09348394     0.43880
N245        N  0.13433154  0.83958714  0.14402181    -0.34910
N246        N  0.12458424  0.84685474  0.11932895    -0.29160
C247        C  0.10513957  0.83511826  0.11505712    -0.05260
C248        C  0.10226669  0.82002110  0.13851754     0.06950
C249        C  0.12131289  0.82313935  0.15619374     0.00750
H250        H  0.09403821  0.83740078  0.09613446     0.08400
H251        H  0.12520562  0.81442585  0.17676240     0.07480
N252        N  0.15364027  0.90056187  0.07263611    -0.36360
N253        N  0.17378546  0.90859320  0.08059452    -0.28540
C254        C  0.17936604  0.92618990  0.06281364    -0.03770
C255        C  0.16164606  0.92986578  0.04304629     0.04840
C256        C  0.14576533  0.91304701  0.04977979     0.02930
H257        H  0.19531498  0.93537267  0.06417202     0.08030
H258        H  0.12946888  0.91028938  0.03914083     0.06870
N259        N  0.17850755  0.54861107  0.23173548    -0.27520
N260        N  0.16679012  0.56601696  0.24295470    -0.35380
C261        C  0.17689888  0.57305067  0.26827122     0.00820
C262        C  0.19586966  0.55947433  0.27308167     0.06850
C263        C  0.19648407  0.54433095  0.24937077    -0.06250
H264        H  0.17130385  0.58746918  0.28163564     0.07510
H265        H  0.20913434  0.53121094  0.24516881     0.08710
Cu266      Cu  0.13876476  0.58081004  0.22207316     0.44170
Cu267      Cu  0.16992939  0.53124650  0.19296179     0.41990
Cu268      Cu  0.12385336  0.55561616  0.15118048     0.43880
N269        N  0.11421120  0.59439444  0.19372928    -0.34910
N270        N  0.10944669  0.58546593  0.16736883    -0.29160
C271        C  0.09397853  0.59869540  0.15363840    -0.05260
C272        C  0.08869615  0.61680844  0.17225734     0.06950
C273        C  0.10160896  0.61347071  0.19761784     0.00750
H274        H  0.08690240  0.59521399  0.13187299     0.08400
H275        H  0.10204714  0.62428508  0.21722920     0.07480
N276        N  0.14033492  0.52573872  0.13897674    -0.36360
N277        N  0.15725834  0.51662605  0.15423026    -0.28540
C278        C  0.16448070  0.49757617  0.14007358    -0.03770
C279        C  0.15134189  0.49455038  0.11477130     0.04840
C280        C  0.13635654  0.51284555  0.11471820     0.02930
H281        H  0.17871404  0.48718243  0.14717388     0.08030
H282        H  0.12363356  0.51665973  0.09806827     0.06870
N283        N  0.80948988  0.90323247  0.22560052    -0.27520
N284        N  0.81863621  0.88361936  0.23417402    -0.35380
C285        C  0.80767545  0.87617932  0.25858160     0.00820
C286        C  0.79104646  0.89198872  0.26583899     0.06850
C287        C  0.79251662  0.90884620  0.24443637    -0.06250
H288        H  0.81120451  0.86019614  0.26979091     0.07510
H289        H  0.78160758  0.92368585  0.24216684     0.08710
Cu290      Cu  0.84509083  0.86740843  0.21185354     0.44170
Cu291      Cu  0.81969219  0.92070103  0.18770891     0.41990
Cu292      Cu  0.86853085  0.89675793  0.14841068     0.43880
N293        N  0.87224426  0.85501375  0.18698794    -0.34910
N294        N  0.88112827  0.86589740  0.16402163    -0.29160
C295        C  0.89866084  0.85354929  0.15315603    -0.05260
C296        C  0.90108973  0.83404851  0.17032234     0.06950
C297        C  0.88381435  0.83543866  0.19129971     0.00750
H298        H  0.90900750  0.85851187  0.13431917     0.08400
H299        H  0.87969786  0.82302990  0.20827566     0.07480
N300        N  0.85133389  0.92601915  0.13520864    -0.36360
N301        N  0.83328462  0.93449809  0.14904672    -0.28540
C302        C  0.82560493  0.95273711  0.13381785    -0.03770
C303        C  0.83970399  0.95608737  0.10950553     0.04840
C304        C  0.85569919  0.93871061  0.11098387     0.02930
H305        H  0.81080721  0.96277648  0.13993618     0.08030
H306        H  0.86911091  0.93508555  0.09511396     0.06870
N307        N  0.81591931  0.54334449  0.08278432    -0.27520
N308        N  0.83630751  0.55094484  0.07516183    -0.35380
C309        C  0.84427967  0.53813279  0.05251351     0.00820
C310        C  0.82822615  0.52153932  0.04547258     0.06850
C311        C  0.81028435  0.52570072  0.06489348    -0.06250
H312        H  0.86080637  0.54048699  0.04229268     0.07510
H313        H  0.79418572  0.51678328  0.06602930     0.08710
Cu314      Cu  0.85287415  0.57797538  0.09606470     0.44170
Cu315      Cu  0.79764641  0.55536767  0.11923256     0.41990
Cu316      Cu  0.82955841  0.59352301  0.16702174     0.43880
N317        N  0.86606064  0.60409301  0.12235307    -0.34910
N318        N  0.85767467  0.60938587  0.14877208    -0.29160
C319        C  0.87013691  0.62633367  0.16086157    -0.05260
C320        C  0.88710426  0.63230063  0.14093273     0.06950
C321        C  0.88409422  0.61764602  0.11684704     0.00750
H322        H  0.86741712  0.63318541  0.18296772     0.08400
H323        H  0.89442082  0.61671188  0.09692093     0.07480
N324        N  0.79878260  0.57905478  0.17879943    -0.36360
N325        N  0.78650109  0.56594960  0.16095116    -0.28540
C326        C  0.76711197  0.56018545  0.17502886    -0.03770
C327        C  0.76712021  0.57029069  0.20304835     0.04840
C328        C  0.78770449  0.58181651  0.20471807     0.02930
H329        H  0.75400324  0.54935248  0.16557786     0.08030
H330        H  0.79454411  0.59111907  0.22352673     0.06870
O331        O  0.97353276  0.25164060  0.87945170    -0.73170
O332        O  0.01940290  0.20151727  0.88138623    -0.74150
O333        O  0.97081195  0.20287076  0.88129827    -0.62770
O334        O  0.02250555  0.25005023  0.88234752    -0.71180
O335        O  0.02138339  0.24888213  0.93156139    -0.70740
O336        O  0.97002511  0.20562604  0.93027745    -0.61990
O337        O  0.01788812  0.20046654  0.93071843    -0.74500
O338        O  0.97336759  0.25394523  0.92874999    -0.73280
Cu339      Cu  0.99659150  0.22656083  0.87931243     1.04560
Cu340      Cu  0.99563690  0.22728138  0.93196439     1.04330
C341        C  0.96612746  0.26074237  0.90339872     0.93020
C342        C  0.02577695  0.19289108  0.90596162     0.92160
C343        C  0.96239950  0.19678351  0.90644669     0.84310
C344        C  0.03013137  0.25660775  0.90776992     0.90580
N345        N  0.20465285  0.38881055  0.90170828    -0.27520
N346        N  0.19720061  0.36994997  0.88862361    -0.35380
C347        C  0.20998185  0.36552315  0.86452363     0.00820
C348        C  0.22600813  0.38275895  0.86169420     0.06850
C349        C  0.22233793  0.39707594  0.88597690    -0.06250
H350        H  0.20776720  0.35067123  0.85035388     0.07510
H351        H  0.23163058  0.41251973  0.89157074     0.08710
Cu352      Cu  0.16926054  0.35169865  0.90279130     0.44170
Cu353      Cu  0.19008395  0.40176780  0.94035571     0.41990
Cu354      Cu  0.14493750  0.36655420  0.97358135     0.43880
N355        N  0.14068473  0.33604135  0.91973559    -0.34910
N356        N  0.13250522  0.34036645  0.94649888    -0.29160
C357        C  0.11386615  0.32742482  0.95069796    -0.05260
C358        C  0.10977596  0.31445790  0.92507386     0.06950
C359        C  0.12718737  0.32080170  0.90586615     0.00750
H360        H  0.10367141  0.32814508  0.97071686     0.08400
H361        H  0.12943662  0.31600193  0.88287213     0.07480
N362        N  0.15713738  0.39700681  0.99191949    -0.36360
N363        N  0.17299996  0.40992556  0.97943566    -0.28540
C364        C  0.17597956  0.42892927  0.99600712    -0.03770
C365        C  0.16123225  0.42804056  0.01997646     0.04840
C366        C  0.14972009  0.40746792  0.01687539     0.02930
H367        H  0.18809584  0.44234973  0.99100637     0.08030
H368        H  0.13653517  0.40084866  0.03132086     0.06870
N369        N  0.18078969  0.05064916  0.83387638    -0.27520
N370        N  0.16929063  0.06812214  0.82273532    -0.35380
C371        C  0.17972933  0.07517955  0.79772652     0.00820
C372        C  0.19867124  0.06150416  0.79294580     0.06850
C373        C  0.19894338  0.04630532  0.81644386    -0.06250
H374        H  0.17426062  0.08957889  0.78443878     0.07510
H375        H  0.21139885  0.03301681  0.82053809     0.08710
Cu376      Cu  0.14063635  0.08249927  0.84279204     0.44170
Cu377      Cu  0.17142874  0.03323781  0.87211328     0.41990
Cu378      Cu  0.12269231  0.05589868  0.91133064     0.43880
N379        N  0.11397560  0.09474911  0.86900708    -0.34910
N380        N  0.10762342  0.08501600  0.89417016    -0.29160
C381        C  0.09095518  0.09755885  0.90675418    -0.05260
C382        C  0.08631537  0.11604710  0.88853684     0.06950
C383        C  0.10142088  0.11377781  0.86490852     0.00750
H384        H  0.08355156  0.09397403  0.92827227     0.08400
H385        H  0.10346851  0.12538401  0.84639164     0.07480
N386        N  0.14036314  0.02708550  0.92477406    -0.36360
N387        N  0.15815286  0.01861728  0.91036406    -0.28540
C388        C  0.16582187  0.00006358  0.92494917    -0.03770
C389        C  0.15215419  0.99682674  0.94961475     0.04840
C390        C  0.13628593  0.01426351  0.94896997     0.02930
H391        H  0.18046378  0.98995974  0.91838731     0.08030
H392        H  0.12292540  0.01754272  0.96504069     0.06870
N393        N  0.78761063  0.06400670  0.89659744    -0.27520
N394        N  0.79605925  0.08208345  0.88285374    -0.35380
C395        C  0.78337161  0.08658449  0.85874662     0.00820
C396        C  0.76567304  0.07091174  0.85749406     0.06850
C397        C  0.76908988  0.05671489  0.88175988    -0.06250
H398        H  0.78735518  0.09982715  0.84283322     0.07510
H399        H  0.75895036  0.04203157  0.88808399     0.08710
Cu400      Cu  0.82471823  0.09963690  0.89670294     0.44170
Cu401      Cu  0.80221643  0.04959099  0.93412319     0.41990
Cu402      Cu  0.85272148  0.07815177  0.96226742     0.43880
N403        N  0.85525132  0.11244492  0.91227327    -0.34910
N404        N  0.86594068  0.10404570  0.93562491    -0.29160
C405        C  0.88593406  0.11499922  0.93870989    -0.05260
C406        C  0.88800592  0.13117335  0.91622793     0.06950
C407        C  0.86793587  0.12920295  0.90019472     0.00750
H408        H  0.89812034  0.11135289  0.95608185     0.08400
H409        H  0.86251753  0.13941946  0.88152538     0.07480
N410        N  0.83698505  0.05070386  0.98338200    -0.36360
N411        N  0.81923912  0.03966133  0.97236262    -0.28540
C412        C  0.81424216  0.02182055  0.99005407    -0.03770
C413        C  0.82916489  0.02186400  0.01399635     0.04840
C414        C  0.84344276  0.04042147  0.00871055     0.02930
H415        H  0.80118254  0.00937897  0.98499333     0.08030
H416        H  0.85771327  0.04596780  0.02212537     0.06870
N417        N  0.80905630  0.40298730  0.83413388    -0.27520
N418        N  0.82056775  0.38584255  0.82196683    -0.35380
C419        C  0.81001705  0.37921763  0.79683603     0.00820
C420        C  0.79096702  0.39282894  0.79306660     0.06850
C421        C  0.79073951  0.40755587  0.81723932    -0.06250
H422        H  0.81536891  0.36501270  0.78292589     0.07510
H423        H  0.77813089  0.42054780  0.82226514     0.08710
Cu424      Cu  0.84877115  0.37066057  0.84137483     0.44170
Cu425      Cu  0.81852239  0.41926061  0.87325161     0.41990
Cu426      Cu  0.86504857  0.39332311  0.91324913     0.43880
N427        N  0.87317551  0.35568157  0.86832308    -0.34910
N428        N  0.87865736  0.36370648  0.89488836    -0.29160
C429        C  0.89407120  0.34967443  0.90726876    -0.05260
C430        C  0.89846546  0.33178188  0.88769693     0.06950
C431        C  0.88509044  0.33638265  0.86302120     0.00750
H432        H  0.90146866  0.35227666  0.92905221     0.08400
H433        H  0.88430229  0.32676000  0.84244407     0.07480
N434        N  0.84885598  0.42309824  0.92696469    -0.36360
N435        N  0.83190442  0.43269419  0.91220503    -0.28540
C436        C  0.82500016  0.45157384  0.92695374    -0.03770
C437        C  0.83826947  0.45387398  0.95211190     0.04840
C438        C  0.85312875  0.43553561  0.95159475     0.02930
H439        H  0.81109323  0.46253324  0.92016923     0.08030
H440        H  0.86590081  0.43138586  0.96803831     0.06870
C441        C  0.06820088  0.27054018  0.89108970    -0.09390
C442        C  0.04960384  0.27265344  0.91050058     0.06810
C443        C  0.05124670  0.28823124  0.93457211    -0.03150
C444        C  0.07047914  0.30198266  0.93777298    -0.07600
C445        C  0.08950776  0.29957794  0.91904710     0.05920
C446        C  0.08839561  0.28293355  0.89589159    -0.02630
Br447      Br  0.11413390  0.27336413  0.87256265    -0.02320
H448        H  0.06764154  0.25795585  0.87331969     0.09840
H449        H  0.07049665  0.31431890  0.95577114     0.07850
Br450      Br  0.02856434  0.29134358  0.96515091    -0.02750
C451        C  0.03514109  0.15183994  0.91324086    -0.09390
C452        C  0.04219680  0.17383976  0.90493119     0.06810
C453        C  0.06368970  0.17669464  0.89154245    -0.03150
C454        C  0.07778911  0.15772852  0.88674360    -0.07600
C455        C  0.07073091  0.13556179  0.89460352     0.05920
C456        C  0.04902451  0.13269452  0.90782557    -0.02630
Br457      Br  0.03612225  0.10309883  0.91571719    -0.02320
H458        H  0.01825255  0.14939028  0.92246635     0.09840
H459        H  0.09436850  0.16036932  0.87672074     0.07850
Br460      Br  0.07456286  0.20622077  0.87940473    -0.02750
C461        C  0.93196513  0.17253032  0.88301513    -0.09390
C462        C  0.94371678  0.17955847  0.90870263     0.06810
C463        C  0.93716787  0.16993869  0.93640878    -0.03150
C464        C  0.91892038  0.15470843  0.93787490    -0.07600
C465        C  0.90699667  0.14784607  0.91238698     0.05920
C466        C  0.91397638  0.15668500  0.88452106    -0.02630
Br467      Br  0.90125262  0.14674616  0.84734899    -0.02320
H468        H  0.93689348  0.17922784  0.86151481     0.10080
H469        H  0.91405680  0.14815443  0.95946275     0.07850
Br470      Br  0.95245511  0.17542672  0.97367440    -0.02750
C471        C  0.93528264  0.31783401  0.90770767    -0.09390
C472        C  0.91515277  0.31297920  0.89203949     0.06810
C473        C  0.91163801  0.29044003  0.88125721    -0.03150
C474        C  0.92840032  0.27368963  0.88557548    -0.07600
C475        C  0.94851950  0.27870138  0.90110064     0.05920
C476        C  0.95183841  0.30099963  0.91223045    -0.02630
Br477      Br  0.97933588  0.31003752  0.93153815    -0.02320
H478        H  0.93848784  0.33502556  0.91590134     0.09840
H479        H  0.92560720  0.25651640  0.87701341     0.07850
Br480      Br  0.88391453  0.28073507  0.86243585    -0.02750
C481        C  0.84296573  0.50897362  0.99613229    -0.09390
C482        C  0.83024237  0.50375897  0.02180688     0.06810
C483        C  0.82056408  0.48158605  0.02434036    -0.03150
C484        C  0.82330678  0.46564621  0.00124901    -0.07600
C485        C  0.83579413  0.47113519  0.97574930     0.05920
C486        C  0.84587002  0.49285502  0.97332919    -0.02630
Br487      Br  0.86425919  0.50093784  0.93966303    -0.02320
H488        H  0.85068960  0.52571435  0.99364840     0.09840
H489        H  0.81588520  0.44871533  0.00335289     0.07850
Br490      Br  0.80512478  0.47082643  0.05925918    -0.02750
C491        C  0.81545579  0.97714971  0.07357320    -0.09390
C492        C  0.83708746  0.97330856  0.08572225     0.06810
C493        C  0.85574331  0.98592904  0.07486521    -0.03150
C494        C  0.85267370  0.00138240  0.05152946    -0.07600
C495        C  0.83110565  0.00501867  0.03873561     0.05920
C496        C  0.81223684  0.99283474  0.05045035    -0.02630
Br497      Br  0.78132081  0.99754346  0.03803083    -0.02320
H498        H  0.80090472  0.96781365  0.08210513     0.09840
H499        H  0.86740549  0.01059319  0.04339448     0.07850
Br500      Br  0.88545696  0.98419932  0.09251562    -0.02750
C501        C  0.15321554  0.48434366  0.06128607    -0.09390
C502        C  0.15400990  0.47714950  0.09101245     0.06810
C503        C  0.15673501  0.45361181  0.09716602    -0.03150
C504        C  0.15883383  0.43787408  0.07369792    -0.07600
C505        C  0.15854361  0.44518351  0.04400433     0.05920
C506        C  0.15552930  0.46867100  0.03787632    -0.02630
Br507      Br  0.15284835  0.48024581  0.99813082    -0.02320
H508        H  0.15085363  0.50232658  0.05619372     0.09840
H509        H  0.16084526  0.41982712  0.07866782     0.07850
Br510      Br  0.15620630  0.44171665  0.13688961    -0.02750
C511        C  0.14822863  0.94159819  0.99291406    -0.09390
C512        C  0.15984997  0.94738149  0.01926839     0.06810
C513        C  0.16877315  0.96984301  0.02233940    -0.03150
C514        C  0.16632998  0.98557265  0.99915604    -0.07600
C515        C  0.15490820  0.97955856  0.97298696     0.05920
C516        C  0.14564849  0.95749121  0.96996656    -0.02630
Br517      Br  0.12875495  0.94864161  0.93527735    -0.02320
H518        H  0.14110990  0.92460407  0.99004963     0.09840
H519        H  0.17304993  0.00277228  0.00175485     0.07850
Br520      Br  0.18261199  0.98121432  0.05814880    -0.02750
C521        C  0.04316261  0.79336454  0.14218800    -0.09390
C522        C  0.04818856  0.77154696  0.15322632     0.06810
C523        C  0.07082752  0.76585294  0.16005031    -0.03150
C524        C  0.08816015  0.78195702  0.15539419    -0.07600
C525        C  0.08326662  0.80379130  0.14380201     0.05920
C526        C  0.06035070  0.80957490  0.13777456    -0.02630
Br527      Br  0.05092199  0.83959557  0.12549294    -0.02320
H528        H  0.02568763  0.79782730  0.13702080     0.09840
H529        H  0.10560388  0.77717058  0.16015071     0.07850
Br530      Br  0.07890582  0.73584805  0.17383022    -0.02750
C531        C  0.94441018  0.78753888  0.18674175    -0.09390
C532        C  0.95002654  0.77942972  0.15805898     0.06810
C533        C  0.93972592  0.79016636  0.13329563    -0.03150
C534        C  0.92403297  0.80803330  0.13781362    -0.07600
C535        C  0.91819382  0.81556842  0.16657738     0.05920
C536        C  0.92892130  0.80534699  0.19116732    -0.02630
Br537      Br  0.92478104  0.81586874  0.23139455    -0.02320
H538        H  0.95226333  0.78014392  0.20625276     0.09840
H539        H  0.91607044  0.81588007  0.11866725     0.07850
Br540      Br  0.94594763  0.78164236  0.09279521    -0.02750
C541        C  0.05801165  0.66807784  0.13939152    -0.09390
C542        C  0.03941582  0.67018035  0.15888379     0.06810
C543        C  0.03665481  0.65382952  0.18176800    -0.03150
C544        C  0.05299712  0.63672772  0.18581484    -0.07600
C545        C  0.07186668  0.63505855  0.16690825     0.05920
C546        C  0.07416939  0.65063124  0.14321799    -0.02630
Br547      Br  0.09989854  0.64972395  0.11689756    -0.02320
H548        H  0.06042961  0.68049001  0.12181545     0.09840
H549        H  0.05080576  0.62444171  0.20360329     0.07850
Br550      Br  0.01035035  0.65306931  0.20729677    -0.02750
C551        C  0.92158951  0.68468975  0.16466566    -0.09390
C552        C  0.94308249  0.67898693  0.15330073     0.06810
C553        C  0.94605264  0.65806868  0.13806730    -0.03150
C554        C  0.92763793  0.64318015  0.13444980    -0.07600
C555        C  0.90594995  0.64884410  0.14548116     0.05920
C556        C  0.90295650  0.67002041  0.16049816    -0.02630
Br557      Br  0.87367686  0.68120386  0.17294655    -0.02320
H558        H  0.91906099  0.70110116  0.17558432     0.09840
H559        H  0.93037475  0.62700009  0.12307165     0.07850
Br560      Br  0.97511059  0.64881501  0.12239357    -0.02750
C561        C  0.73736879  0.54720550  0.22845543    -0.09390
C562        C  0.74938455  0.56799237  0.22640429     0.06810
C563        C  0.74372965  0.58604822  0.24623375    -0.03150
C564        C  0.72664941  0.58287166  0.26754431    -0.07600
C565        C  0.71494950  0.56200980  0.26971969     0.05920
C566        C  0.72031150  0.54410652  0.24981072    -0.02630
Br567      Br  0.70379666  0.51571368  0.24932276    -0.02320
H568        H  0.74124423  0.53320502  0.21336621     0.09840
H569        H  0.72244755  0.59684131  0.28255762     0.07850
Br570      Br  0.75710655  0.61605773  0.24442309    -0.02750
C571        C  0.22383217  0.56346408  0.34899736    -0.09390
C572        C  0.24667635  0.56731310  0.34117368     0.06810
C573        C  0.25272054  0.56784472  0.31075465    -0.03150
C574        C  0.23593796  0.56500826  0.28897030    -0.07600
C575        C  0.21303169  0.56190147  0.29684550     0.05920
C576        C  0.20703067  0.56093181  0.32715093    -0.02630
Br577      Br  0.17638868  0.55495800  0.33980933    -0.02320
H578        H  0.21897289  0.56270339  0.37223178     0.09840
H579        H  0.24077522  0.56540946  0.26570564     0.07850
Br580      Br  0.28366510  0.57089693  0.29742733    -0.02750
C581        C  0.75818933  0.89770302  0.33794699    -0.09390
C582        C  0.73902035  0.88382876  0.33225756     0.06810
C583        C  0.73705347  0.87324703  0.30390194    -0.03150
C584        C  0.75438748  0.87592946  0.28282271    -0.07600
C585        C  0.77340293  0.88959192  0.28883092     0.05920
C586        C  0.77515030  0.90079958  0.31642338    -0.02630
Br587      Br  0.80044920  0.92038898  0.32559031    -0.02320
H588        H  0.76015250  0.90611956  0.35930287     0.09840
H589        H  0.75277971  0.86770350  0.26125784     0.07850
Br590      Br  0.71059176  0.85675083  0.29073136    -0.02750
C591        C  0.56364650  0.80706855  0.42317561    -0.09390
C592        C  0.58553885  0.79921633  0.41562461     0.06810
C593        C  0.58786737  0.77700990  0.40312742    -0.03150
C594        C  0.56849373  0.76344172  0.39822866    -0.07600
C595        C  0.54679874  0.77127508  0.40641497     0.05920
C596        C  0.54448756  0.79324534  0.41902890    -0.02630
Br597      Br  0.51553971  0.80515503  0.43116633    -0.02320
H598        H  0.56135764  0.82403446  0.43260794     0.09840
H599        H  0.57050215  0.74621594  0.38945753     0.07850
Br600      Br  0.61689812  0.76299135  0.39555038    -0.02750
C601        C  0.42271096  0.64280991  0.40116166    -0.09390
C602        C  0.40293083  0.65044355  0.41569490     0.06810
C603        C  0.40135344  0.67343312  0.42504022    -0.03150
C604        C  0.41982219  0.68819264  0.42080888    -0.07600
C605        C  0.43972668  0.68054082  0.40656047     0.05920
C606        C  0.44096839  0.65777387  0.39617027    -0.02630
Br607      Br  0.46764537  0.64603326  0.37671370    -0.02320
H608        H  0.42398651  0.62513116  0.39383372     0.09840
H609        H  0.41873786  0.70569069  0.42891639     0.07850
Br610      Br  0.37479601  0.68511164  0.44490366    -0.02750
C611        C  0.56121758  0.67859780  0.38936183    -0.09390
C612        C  0.54110175  0.67410853  0.40508271     0.06810
C613        C  0.53785825  0.65239647  0.41783361    -0.03150
C614        C  0.55425271  0.63523214  0.41347885    -0.07600
C615        C  0.57420433  0.63945685  0.39692737     0.05920
C616        C  0.57792563  0.66176274  0.38571934    -0.02630
Br617      Br  0.60593133  0.67128291  0.36740403    -0.02320
H618        H  0.56404708  0.69548376  0.38007607     0.09840
H619        H  0.55109029  0.61835345  0.42252658     0.07850
Br620      Br  0.51079655  0.64498609  0.43972593    -0.02750
C621        C  0.28043297  0.88634040  0.24035719    -0.09390
C622        C  0.27252345  0.88810873  0.26974447     0.06810
C623        C  0.24888338  0.88734104  0.27527718    -0.03150
C624        C  0.23370477  0.88487624  0.25154471    -0.07600
C625        C  0.24159025  0.88337031  0.22211224     0.05920
C626        C  0.26523149  0.88413048  0.21658429    -0.02630
Br627      Br  0.27790471  0.88053539  0.17746178    -0.02320
H628        H  0.29857124  0.88665560  0.23586430     0.09840
H629        H  0.21559526  0.88408993  0.25613199     0.07850
Br630      Br  0.23632502  0.88780139  0.31473217    -0.02750
C631        C  0.41155820  0.79382301  0.38121164    -0.09390
C632        C  0.41712262  0.81558263  0.39273094     0.06810
C633        C  0.43774596  0.81817615  0.40867957    -0.03150
C634        C  0.45181409  0.79918932  0.41332906    -0.07600
C635        C  0.44653957  0.77779806  0.40100285     0.05920
C636        C  0.42615665  0.77510286  0.38495487    -0.02630
Br637      Br  0.41716957  0.74599507  0.36865590    -0.02320
H638        H  0.39577038  0.79128435  0.36922615     0.09840
H639        H  0.46752685  0.80141651  0.42541726     0.07850
Br640      Br  0.44945733  0.84728940  0.42164466    -0.02750
C641        C  0.76216537  0.38869772  0.71786891    -0.09390
C642        C  0.73933465  0.38550842  0.72618933     0.06810
C643        C  0.73356036  0.38542039  0.75667897    -0.03150
C644        C  0.75060985  0.38815690  0.77810757    -0.07600
C645        C  0.77348643  0.39070271  0.76973859     0.05920
C646        C  0.77922278  0.39112644  0.73932438    -0.02630
Br647      Br  0.80983195  0.39628773  0.72588459    -0.02320
H648        H  0.76679377  0.38911437  0.69453607     0.09840
H649        H  0.74600867  0.38809178  0.80146040     0.07850
Br650      Br  0.70267807  0.38312747  0.77047658    -0.02750
C651        C  0.67772525  0.45631621  0.50800931    -0.09390
C652        C  0.65777105  0.44902574  0.52238822     0.06810
C653        C  0.63674480  0.45891030  0.51425678    -0.03150
C654        C  0.63597738  0.47510673  0.49151179    -0.07600
C655        C  0.65584356  0.48207082  0.47670155     0.05920
C656        C  0.67697413  0.47273881  0.48544471    -0.02630
Br657      Br  0.70555181  0.48295140  0.46946213    -0.02320
H658        H  0.69405293  0.44923963  0.51441596     0.09840
H659        H  0.61967015  0.48242605  0.48548436     0.07850
Br660      Br  0.60871751  0.45280646  0.53484846    -0.02750
C661        C  0.25643401  0.38224097  0.78686225    -0.09390
C662        C  0.27807660  0.39007572  0.79500035     0.06810
C663        C  0.28242466  0.39594450  0.82479762    -0.03150
C664        C  0.26522192  0.39353691  0.84613735    -0.07600
C665        C  0.24356437  0.38522991  0.83823300     0.05920
C666        C  0.23918426  0.37977350  0.80806566    -0.02630
Br667      Br  0.20977660  0.37066930  0.79351057    -0.02320
H668        H  0.25290290  0.37815149  0.76378264     0.09840
H669        H  0.26886012  0.39804722  0.86904335     0.07850
Br670      Br  0.31121984  0.40832365  0.83697395    -0.02750
C671        C  0.32080261  0.48609334  0.54228343    -0.09390
C672        C  0.33175326  0.50742363  0.54559343     0.06810
C673        C  0.34406205  0.51182155  0.57210829    -0.03150
C674        C  0.34583823  0.49478631  0.59382203    -0.07600
C675        C  0.33527389  0.47349370  0.58996302     0.05920
C676        C  0.32242427  0.46926095  0.56422164    -0.02630
Br677      Br  0.30672268  0.44075900  0.55830264    -0.02320
H678        H  0.31116870  0.48228609  0.52234524     0.09840
H679        H  0.35541148  0.49821639  0.61395106     0.07850
Br680      Br  0.35743107  0.54099073  0.58154411    -0.02750
C681        C  0.74060298  0.04629117  0.82638064    -0.09390
C682        C  0.74798101  0.06842938  0.83417298     0.06810
C683        C  0.73799113  0.08746079  0.81984157    -0.03150
C684        C  0.72158345  0.08397289  0.79776214    -0.07600
C685        C  0.71450753  0.06182831  0.78967270     0.05920
C686        C  0.72397033  0.04284705  0.80458010    -0.02630
Br687      Br  0.71372318  0.01195492  0.79822322    -0.02320
H688        H  0.74777598  0.03146593  0.83735483     0.09840
H689        H  0.71423811  0.09876087  0.78688105     0.07850
Br690      Br  0.74428368  0.11870903  0.83068385    -0.02750
C691        C  0.65465431  0.95666185  0.59091884    -0.09390
C692        C  0.65410801  0.97990651  0.58312917     0.06810
C693        C  0.65600054  0.98607540  0.55295947    -0.03150
C694        C  0.65791846  0.96902850  0.53117102    -0.07600
C695        C  0.65778014  0.94573399  0.53881760     0.05920
C696        C  0.65633682  0.93957422  0.56907800    -0.02630
Br697      Br  0.65798962  0.90833713  0.58213089    -0.02320
H698        H  0.65354055  0.95176713  0.61409855     0.09840
H699        H  0.65932159  0.97401676  0.50805443     0.07850
Br700      Br  0.65747725  0.01743513  0.54029626    -0.02750
C701        C  0.41374352  0.29522177  0.67365849    -0.09390
C702        C  0.42073367  0.31743799  0.66592770     0.06810
C703        C  0.44235106  0.32044589  0.65253345    -0.03150
C704        C  0.45628689  0.30138956  0.64695042    -0.07600
C705        C  0.44934142  0.27935890  0.65523355     0.05920
C706        C  0.42788745  0.27632765  0.66864717    -0.02630
Br707      Br  0.41721973  0.24665499  0.68062863    -0.02320
H708        H  0.39721669  0.29250723  0.68379853     0.09840
H709        H  0.47314121  0.30393284  0.63765890     0.07850
Br710      Br  0.45508343  0.35012082  0.64467400    -0.02750
C711        C  0.53482353  0.15154265  0.64681931    -0.09390
C712        C  0.54077924  0.17295260  0.65870019     0.06810
C713        C  0.56093061  0.17502788  0.67547526    -0.03150
C714        C  0.57505814  0.15602176  0.67932149    -0.07600
C715        C  0.56912696  0.13443118  0.66773492     0.05920
C716        C  0.54842678  0.13220685  0.65185937    -0.02630
Br717      Br  0.53612815  0.10312273  0.63980910    -0.02320
H718        H  0.51884004  0.14958610  0.63504554     0.09840
H719        H  0.59076178  0.15820711  0.69161531     0.07850
Br720      Br  0.57004960  0.20337502  0.69379803    -0.02750
C721        C  0.54471910  0.29485408  0.65910035    -0.09390
C722        C  0.54834565  0.27191143  0.65092167     0.06810
C723        C  0.56944836  0.26538716  0.63850672    -0.03150
C724        C  0.58683981  0.28156874  0.63556471    -0.07600
C725        C  0.58313732  0.30451475  0.64343094     0.05920
C726        C  0.56180615  0.31126334  0.65481683    -0.02630
Br727      Br  0.55522496  0.34266702  0.66430786    -0.02320
H728        H  0.52830511  0.30015113  0.66780102     0.09840
H729        H  0.60313408  0.27635748  0.62640140     0.07850
Br730      Br  0.57525912  0.23474892  0.62475482    -0.02750
C731        C  0.23898875  0.06487453  0.77682898    -0.09390
C732        C  0.21587323  0.06363370  0.76911343     0.06810
C733        C  0.20969382  0.06429777  0.73885766    -0.03150
C734        C  0.22651557  0.06667844  0.71701049    -0.07600
C735        C  0.24958521  0.06869357  0.72474249     0.05920
C736        C  0.25581820  0.06750596  0.75501827    -0.02630
Br737      Br  0.28698507  0.06788824  0.76792038    -0.02320
H738        H  0.24396861  0.06400101  0.79999610     0.09840
H739        H  0.22150624  0.06720630  0.69383687     0.07850
Br740      Br  0.17875037  0.06066193  0.72599004    -0.02750
C741        C  0.31827786  0.96966629  0.49481392    -0.09390
C742        C  0.33507669  0.97284577  0.47318256     0.06810
C743        C  0.34965741  0.99182537  0.47517085    -0.03150
C744        C  0.34691074  0.00767476  0.49832367    -0.07600
C745        C  0.33019912  0.00462109  0.52053388     0.05920
C746        C  0.31598358  0.98494356  0.51872676    -0.02630
Br747      Br  0.29466814  0.97586884  0.54887579    -0.02320
H748        H  0.30740529  0.95466807  0.49366653     0.09840
H749        H  0.35804579  0.02244647  0.49881554     0.07850
Br750      Br  0.37348018  0.99679693  0.44664883    -0.02750
C751        C  0.42615834  0.14258446  0.65730205    -0.09390
C752        C  0.40573606  0.15000611  0.64434473     0.06810
C753        C  0.40329812  0.17312978  0.63619111    -0.03150
C754        C  0.42139031  0.18835197  0.64047476    -0.07600
C755        C  0.44178534  0.18100004  0.65355351     0.05920
C756        C  0.44411135  0.15795905  0.66216089    -0.02630
Br757      Br  0.47196450  0.14647448  0.67864597    -0.02320
H758        H  0.42815410  0.12477755  0.66354469     0.09840
H759        H  0.41965817  0.20594850  0.63319121     0.07850
Br760      Br  0.37608948  0.18439826  0.61771345    -0.02750
loop_ 
_geom_bond_atom_site_label_1 
_geom_bond_atom_site_label_2 
_geom_bond_distance 
_geom_bond_site_symmetry_2 
_ccdc_geom_bond_type 
N1            N2   1.321       .  A
N1            C5   1.345       .  A
N1           Cu9   2.073       .  S
N2            C3   1.344       .  A
N2           Cu8   2.068       .  S
C3            C4   1.384       .  A
C3            H6   1.082       .  S
C4            C5   1.385       .  A
C4          C735   1.479       .  S
C5            H7   1.082       .  S
Cu8          N11   2.068       .  S
Cu9          N19   2.073       .  S
Cu10         N12   2.079       .  S
Cu10         N18   2.079       .  S
N11          N12   1.323       .  A
N11          C15   1.344       .  A
N12          C13   1.346       .  A
C13          C14   1.383       .  A
C13          H16   1.082       .  S
C14          C15   1.379       .  A
C14         C752   1.470       .  S
C15          H17   1.082       .  S
N18          N19   1.320       .  A
N18          C22   1.344       .  A
N19          C20   1.343       .  A
C20          C21   1.389       .  A
C20          H23   1.078       .  S
C21          C22   1.391       .  A
C21         C745   1.494       .  S
C22          H24   1.081       .  S
O25         Cu33   1.986       .  S
O25          C35   1.274       .  A
O26         Cu33   1.987       .  S
O26          C36   1.273       .  A
O27         Cu33   2.032       .  S
O27          C37   1.281       .  A
O28         Cu33   2.032       .  S
O28          C38   1.281       .  A
O29         Cu34   1.983       .  S
O29          C38   1.273       .  A
O30         Cu34   1.984       .  S
O30          C37   1.273       .  A
O31         Cu34   2.028       .  S
O31          C36   1.281       .  A
O32         Cu34   2.028       .  S
O32          C35   1.280       .  A
Cu33        Cu34   2.374       .  S
C35         C755   1.468       .  S
C36         C722   1.468       .  S
C37         C712   1.471       .  S
C38         C705   1.469       .  S
N39          N40   1.322       .  A
N39          C43   1.344       .  A
N39         Cu47   2.070       .  S
N40          C41   1.344       .  A
N40         Cu46   2.077       .  S
C41          C42   1.385       .  A
C41          H44   1.082       .  S
C42          C43   1.384       .  A
C42         C685   1.481       .  S
C43          H45   1.081       .  S
Cu46         N49   2.077       .  S
Cu47         N57   2.070       .  S
Cu48         N50   2.064       .  S
Cu48         N56   2.064       .  S
N49          N50   1.320       .  A
N49          C53   1.345       .  A
N50          C51   1.343       .  A
C51          C52   1.385       .  A
C51          H54   1.081       .  S
C52          C53   1.389       .  A
C52         C715   1.485       .  S
C53          H55   1.082       .  S
N56          N57   1.322       .  A
N56          C60   1.343       .  A
N57          C58   1.345   1_545  A
C58          C59   1.383       .  A
C58          H61   1.082       .  S
C59          C60   1.382   1_565  A
C59         C692   1.473       .  S
C60          H62   1.082       .  S
N63          N64   1.322       .  A
N63          C67   1.346       .  A
N63         Cu71   2.070       .  S
N64          C65   1.344       .  A
N64         Cu70   2.068       .  S
C65          C66   1.380       .  A
C65          H68   1.082       .  S
C66          C67   1.381       .  A
C66         C675   1.468       .  S
C67          H69   1.082       .  S
Cu70         N73   2.068       .  S
Cu71         N81   2.070       .  S
Cu72         N74   2.081       .  S
Cu72         N80   2.080       .  S
N73          N74   1.322       .  A
N73          C77   1.344       .  A
N74          C75   1.346       .  A
C75          C76   1.388       .  A
C75          H78   1.082       .  S
C76          C77   1.384       .  A
C76         C702   1.482       .  S
C77          H79   1.081       .  S
N80          N81   1.323       .  A
N80          C84   1.346       .  A
N81          C82   1.344       .  A
C82          C83   1.379       .  A
C82          H85   1.082       .  S
C83          C84   1.382       .  A
C83         C662   1.469       .  S
C84          H86   1.082       .  S
N87          N88   1.321       .  A
N87          C91   1.345       .  A
N87         Cu95   2.072       .  S
N88          C89   1.343       .  A
N88         Cu94   2.067       .  S
C89          C90   1.383       .  A
C89          H92   1.081       .  S
C90          C91   1.385       .  A
C90         C652   1.478       .  S
C91          H93   1.082       .  S
Cu94         N97   2.067       .  S
Cu95        N105   2.072       .  S
Cu96         N98   2.071       .  S
Cu96        N104   2.071       .  S
N97          N98   1.322       .  A
N97         C101   1.345       .  A
N98          C99   1.344       .  A
C99         C100   1.380       .  A
C99         H102   1.082       .  S
C100        C101   1.381       .  A
C100        C725   1.468       .  S
C101        H103   1.082       .  S
N104        N105   1.322       .  A
N104        C108   1.344       .  A
N105        C106   1.344       .  A
C106        C107   1.383       .  A
C106        H109   1.082       .  S
C107        C108   1.383       .  A
C107        C642   1.476       .  S
C108        H110   1.082       .  S
N111        N112   1.323       .  A
N111        C115   1.344       .  A
N111       Cu119   2.071       .  S
N112        C113   1.345       .  A
N112       Cu118   2.076       .  S
C113        C114   1.383       .  A
C113        H116   1.082       .  S
C114        C115   1.383       .  A
C114        C622   1.476       .  S
C115        H117   1.082       .  S
Cu118       N121   2.076       .  S
Cu119       N129   2.071       .  S
Cu120       N122   2.066       .  S
Cu120       N128   2.066       .  S
N121        N122   1.321       .  A
N121        C125   1.345       .  A
N122        C123   1.343       .  A
C123        C124   1.385       .  A
C123        H126   1.080       .  S
C124        C125   1.388       .  A
C124        C632   1.485       .  S
C125        H127   1.082       .  S
N128        N129   1.322       .  A
N128        C132   1.344       .  A
N129        C130   1.345       .  A
C130        C131   1.381       .  A
C130        H133   1.082       .  S
C131        C132   1.380       .  A
C131        C742   1.468       .  S
C132        H134   1.082       .  S
O135       Cu143   1.997       .  S
O135        C145   1.276       .  A
O136       Cu143   1.986       .  S
O136        C146   1.274       .  A
O137       Cu143   2.025       .  S
O137        C147   1.280       .  A
O138       Cu143   2.029       .  S
O138        C148   1.280       .  A
O139       Cu144   1.996       .  S
O139        C148   1.275       .  A
O140       Cu144   1.992       .  S
O140        C147   1.275       .  A
O141       Cu144   2.031       .  S
O141        C146   1.280       .  A
O142       Cu144   2.020       .  S
O142        C145   1.279       .  A
Cu143      Cu144   2.376       .  S
C145        C635   1.471       .  S
C146        C612   1.471       .  S
C147        C605   1.470       .  S
C148        C595   1.471       .  S
N149        N150   1.323       .  A
N149        C153   1.344       .  A
N149       Cu157   2.073       .  S
N150        C151   1.345       .  A
N150       Cu156   2.074       .  S
C151        C152   1.384       .  A
C151        H154   1.082       .  S
C152        C153   1.383       .  A
C152        C695   1.476       .  S
C153        H155   1.082       .  S
Cu156       N159   2.074       .  S
Cu157       N167   2.073       .  S
Cu158       N160   2.070       .  S
Cu158       N166   2.069       .  S
N159        N160   1.320       .  A
N159        C163   1.344       .  A
N160        C161   1.345       .  A
C161        C162   1.386       .  A
C161        H164   1.081       .  S
C162        C163   1.388       .  A
C162        C592   1.485       .  S
C163        H165   1.082       .  S
N166        N167   1.320       .  A
N166        C170   1.343       .  A
N167        C168   1.345       .  A
C168        C169   1.389       .  A
C168        H171   1.082       .  S
C169        C170   1.387       .  A
C169        C582   1.489       .  S
C170        H172   1.079       .  S
N173        N174   1.322       .  A
N173        C177   1.347       .  A
N173       Cu181   2.080       .  S
N174        C175   1.344       .  A
N174       Cu180   2.070       .  S
C175        C176   1.383       .  A
C175        H178   1.082       .  S
C176        C177   1.386       .  A
C176        C572   1.480       .  S
C177        H179   1.082       .  S
Cu180       N183   2.069       .  S
Cu181       N191   2.080       .  S
Cu182       N184   2.076       .  S
Cu182       N190   2.076       .  S
N183        N184   1.322       .  A
N183        C187   1.345       .  A
N184        C185   1.345       .  A
C185        C186   1.382       .  A
C185        H188   1.082       .  S
C186        C187   1.381       .  A
C186        C602   1.470       .  S
C187        H189   1.082       .  S
N190        N191   1.322       .  A
N190        C194   1.344       .  A
N191        C192   1.345       .  A
C192        C193   1.388       .  A
C192        H195   1.082       .  S
C193        C194   1.387       .  A
C193        C672   1.487       .  S
C194        H196   1.080       .  S
N197        N198   1.322       .  A
N197        C201   1.345       .  A
N197       Cu205   2.070       .  S
N198        C199   1.345       .  A
N198       Cu204   2.075       .  S
C199        C200   1.383       .  A
C199        H202   1.082       .  S
C200        C201   1.383       .  A
C200        C565   1.475       .  S
C201        H203   1.082       .  S
Cu204       N207   2.075       .  S
Cu205       N215   2.070       .  S
Cu206       N208   2.067       .  S
Cu206       N214   2.067       .  S
N207        N208   1.320       .  A
N207        C211   1.344       .  A
N208        C209   1.344       .  A
C209        C210   1.386       .  A
C209        H212   1.082       .  S
C210        C211   1.388       .  A
C210        C615   1.485       .  S
C211        H213   1.080       .  S
N214        N215   1.321       .  A
N214        C218   1.342       .  A
N215        C216   1.345       .  A
C216        C217   1.385       .  A
C216        H219   1.081       .  S
C217        C218   1.383       .  A
C217        C655   1.479       .  S
C218        H220   1.082       .  S
O221       Cu229   1.977       .  S
O221        C231   1.275       .  A
O222       Cu229   1.977   1_455  S
O222        C232   1.273       .  A
O223       Cu229   2.027   1_455  S
O223        C233   1.280       .  A
O224       Cu229   2.026       .  S
O224        C234   1.280       .  A
O225       Cu230   1.985       .  S
O225        C234   1.274       .  A
O226       Cu230   1.987   1_455  S
O226        C233   1.273       .  A
O227       Cu230   2.039   1_455  S
O227        C232   1.282       .  A
O228       Cu230   2.040       .  S
O228        C231   1.281       .  A
Cu229      Cu230   2.371       .  S
C231        C532   1.493       .  S
C232        C542   1.479       .  S
C233        C522   1.467       .  S
C234        C552   1.468       .  S
N235        N236   1.322       .  A
N235        C239   1.345       .  A
N235       Cu243   2.072       .  S
N236        C237   1.343       .  A
N236       Cu242   2.069       .  S
C237        C238   1.383       .  A
C237        H240   1.082       .  S
C238        C239   1.384       .  A
C238        C625   1.477       .  S
C239        H241   1.082       .  S
Cu242       N245   2.068       .  S
Cu243       N253   2.072       .  S
Cu244       N246   2.078       .  S
Cu244       N252   2.078       .  S
N245        N246   1.321       .  A
N245        C249   1.344       .  A
N246        C247   1.345       .  A
C247        C248   1.387       .  A
C247        H250   1.081       .  S
C248        C249   1.384       .  A
C248        C525   1.483       .  S
C249        H251   1.082       .  S
N252        N253   1.321       .  A
N252        C256   1.345       .  A
N253        C254   1.344       .  A
C254        C255   1.386       .  A
C254        H257   1.080       .  S
C255        C256   1.387       .  A
C255        C512   1.486       .  S
C256        H258   1.082       .  S
N259        N260   1.324       .  A
N259        C263   1.345       .  A
N259       Cu267   2.075       .  S
N260        C261   1.347       .  A
N260       Cu266   2.084       .  S
C261        C262   1.384       .  A
C261        H264   1.082       .  S
C262        C263   1.382       .  A
C262        C575   1.476       .  S
C263        H265   1.082       .  S
Cu266       N269   2.084       .  S
Cu267       N277   2.074       .  S
Cu268       N270   2.064       .  S
Cu268       N276   2.065       .  S
N269        N270   1.322       .  A
N269        C273   1.347       .  A
N270        C271   1.344       .  A
C271        C272   1.380       .  A
C271        H274   1.082       .  S
C272        C273   1.385       .  A
C272        C545   1.473       .  S
C273        H275   1.082       .  S
N276        N277   1.321       .  A
N276        C280   1.343       .  A
N277        C278   1.346       .  A
C278        C279   1.386       .  A
C278        H281   1.082       .  S
C279        C280   1.383       .  A
C279        C502   1.478       .  S
C280        H282   1.082       .  S
N283        N284   1.323       .  A
N283        C287   1.346       .  A
N283       Cu291   2.076       .  S
N284        C285   1.345       .  A
N284       Cu290   2.073       .  S
C285        C286   1.380       .  A
C285        H288   1.082       .  S
C286        C287   1.382       .  A
C286        C585   1.469       .  S
C287        H289   1.082       .  S
Cu290       N293   2.073       .  S
Cu291       N301   2.077       .  S
Cu292       N294   2.072       .  S
Cu292       N300   2.072       .  S
N293        N294   1.321       .  A
N293        C297   1.343       .  A
N294        C295   1.346       .  A
C295        C296   1.385       .  A
C295        H298   1.082       .  S
C296        C297   1.386       .  A
C296        C535   1.482       .  S
C297        H299   1.081       .  S
N300        N301   1.323       .  A
N300        C304   1.344       .  A
N301        C302   1.346       .  A
C302        C303   1.385       .  A
C302        H305   1.082       .  S
C303        C304   1.383       .  A
C303        C492   1.479       .  S
C304        H306   1.082       .  S
N307        N308   1.322       .  A
N307        C311   1.345       .  A
N307       Cu315   2.076       .  S
N308        C309   1.344       .  A
N308       Cu314   2.074       .  S
C309        C310   1.387       .  A
C309        H312   1.082       .  S
C310        C311   1.388       .  A
C310        C482   1.487       .  S
C311        H313   1.080       .  S
Cu314       N317   2.074       .  S
Cu315       N325   2.076       .  S
Cu316       N318   2.063       .  S
Cu316       N324   2.063       .  S
N317        N318   1.320       .  A
N317        C321   1.345       .  A
N318        C319   1.343       .  A
C319        C320   1.384       .  A
C319        H322   1.081       .  S
C320        C321   1.388       .  A
C320        C555   1.482       .  S
C321        H323   1.082       .  S
N324        N325   1.321       .  A
N324        C328   1.342       .  A
N325        C326   1.345       .  A
C326        C327   1.388       .  A
C326        H329   1.082       .  S
C327        C328   1.385       .  A
C327        C562   1.484       .  S
C328        H330   1.080       .  S
O331       Cu339   1.993       .  S
O331        C341   1.274       .  A
O332       Cu339   1.984   1_455  S
O332        C342   1.273       .  A
O333       Cu339   2.051       .  S
O333        C343   1.285       .  A
O334       Cu339   2.052   1_455  S
O334        C344   1.285       .  A
O335       Cu340   1.968   1_455  S
O335        C344   1.270       .  A
O336       Cu340   1.965       .  S
O336        C343   1.269       .  A
O337       Cu340   2.038   1_455  S
O337        C342   1.281       .  A
O338       Cu340   2.037       .  S
O338        C341   1.282       .  A
Cu339      Cu340   2.368       .  S
C341        C475   1.476       .  S
C342        C452   1.471       .  S
C343        C462   1.491       .  S
C344        C442   1.482       .  S
N345        N346   1.320       .  A
N345        C349   1.346       .  A
N345       Cu353   2.075       .  S
N346        C347   1.341       .  A
N346       Cu352   2.057       .  S
C347        C348   1.383       .  A
C347        H350   1.081       .  S
C348        C349   1.388       .  A
C348        C665   1.481       .  S
C349        H351   1.082       .  S
Cu352       N355   2.057       .  S
Cu353       N363   2.075       .  S
Cu354       N356   2.082       .  S
Cu354       N362   2.082       .  S
N355        N356   1.318       .  A
N355        C359   1.343       .  A
N356        C357   1.343       .  A
C357        C358   1.396       .  A
C357        H360   1.081       .  S
C358        C359   1.388       .  A
C358        C445   1.497       .  S
C359        H361   1.078       .  S
N362        N363   1.324       .  A
N362        C366   1.346   1_556  A
N363        C364   1.344       .  A
C364        C365   1.382   1_556  A
C364        H367   1.082       .  S
C365        C366   1.384       .  A
C365        C505   1.477       .  S
C366        H368   1.082       .  S
N369        N370   1.323       .  A
N369        C373   1.345       .  A
N369       Cu377   2.074       .  S
N370        C371   1.346       .  A
N370       Cu376   2.082       .  S
C371        C372   1.384       .  A
C371        H374   1.082       .  S
C372        C373   1.382       .  A
C372        C732   1.477       .  S
C373        H375   1.082       .  S
Cu376       N379   2.082       .  S
Cu377       N387   2.074       .  S
Cu378       N380   2.068       .  S
Cu378       N386   2.068       .  S
N379        N380   1.321       .  A
N379        C383   1.346       .  A
N380        C381   1.344       .  A
C381        C382   1.384       .  A
C381        H384   1.081       .  S
C382        C383   1.388       .  A
C382        C455   1.484       .  S
C383        H385   1.082       .  S
N386        N387   1.322       .  A
N386        C390   1.344       .  A
N387        C388   1.346       .  A
C388        C389   1.381   1_545  A
C388        H391   1.082   1_545  S
C389        C390   1.379   1_565  A
C389        C515   1.468       .  S
C390        H392   1.082       .  S
N393        N394   1.321       .  A
N393        C397   1.344       .  A
N393       Cu401   2.075       .  S
N394        C395   1.343       .  A
N394       Cu400   2.065       .  S
C395        C396   1.385       .  A
C395        H398   1.081       .  S
C396        C397   1.387       .  A
C396        C682   1.483       .  S
C397        H399   1.082       .  S
Cu400       N403   2.064       .  S
Cu401       N411   2.075       .  S
Cu402       N404   2.081       .  S
Cu402       N410   2.081       .  S
N403        N404   1.320       .  A
N403        C407   1.345       .  A
N404        C405   1.343       .  A
C405        C406   1.391       .  A
C405        H408   1.082       .  S
C406        C407   1.387       .  A
C406        C465   1.490       .  S
C407        H409   1.080       .  S
N410        N411   1.321       .  A
N410        C414   1.344   1_556  A
N411        C412   1.345       .  A
C412        C413   1.389   1_556  A
C412        H415   1.079       .  S
C413        C414   1.390       .  A
C413        C495   1.492       .  S
C414        H416   1.082       .  S
N417        N418   1.323       .  A
N417        C421   1.345       .  A
N417       Cu425   2.071       .  S
N418        C419   1.344       .  A
N418       Cu424   2.073       .  S
C419        C420   1.382       .  A
C419        H422   1.082       .  S
C420        C421   1.382       .  A
C420        C645   1.473       .  S
C421        H423   1.082       .  S
Cu424       N427   2.073       .  S
Cu425       N435   2.071       .  S
Cu426       N428   2.071       .  S
Cu426       N434   2.071       .  S
N427        N428   1.321       .  A
N427        C431   1.345       .  A
N428        C429   1.343       .  A
C429        C430   1.386       .  A
C429        H432   1.082       .  S
C430        C431   1.387       .  A
C430        C472   1.484       .  S
C431        H433   1.081       .  S
N434        N435   1.323       .  A
N434        C438   1.345       .  A
N435        C436   1.345       .  A
C436        C437   1.380       .  A
C436        H439   1.082       .  S
C437        C438   1.380       .  A
C437        C485   1.467       .  S
C438        H440   1.082       .  S
C441        C442   1.402       .  A
C441        C446   1.405       .  A
C441        H448   1.083       .  S
C442        C443   1.413       .  A
C443        C444   1.392       .  A
C443       Br450   1.920       .  S
C444        C445   1.404       .  A
C444        H449   1.080       .  S
C445        C446   1.422       .  A
C446       Br447   1.919       .  S
C451        C452   1.401       .  A
C451        C456   1.402       .  A
C451        H458   1.084       .  S
C452        C453   1.407       .  A
C453        C454   1.397       .  A
C453       Br460   1.918       .  S
C454        C455   1.404       .  A
C454        H459   1.083       .  S
C455        C456   1.415       .  A
C456       Br457   1.919       .  S
C461        C462   1.406       .  A
C461        C466   1.405       .  A
C461        H468   1.083       .  S
C462        C463   1.421       .  A
C463        C464   1.393       .  A
C463       Br470   1.927       .  S
C464        C465   1.400       .  A
C464        H469   1.083       .  S
C465        C466   1.417       .  A
C466       Br467   1.919       .  S
C471        C472   1.405       .  A
C471        C476   1.397       .  A
C471        H478   1.083       .  S
C472        C473   1.414       .  A
C473        C474   1.401       .  A
C473       Br480   1.920       .  S
C474        C475   1.403       .  A
C474        H479   1.084       .  S
C475        C476   1.405       .  A
C476       Br477   1.907       .  S
C481        C482   1.408   1_556  A
C481        C486   1.398       .  A
C481        H488   1.083       .  S
C482        C483   1.418       .  A
C483        C484   1.399       .  A
C483       Br490   1.919       .  S
C484        C485   1.398   1_554  A
C484        H489   1.084       .  S
C485        C486   1.403       .  A
C486       Br487   1.918       .  S
C491        C492   1.401       .  A
C491        C496   1.401       .  A
C491        H498   1.084       .  S
C492        C493   1.408       .  A
C493        C494   1.398   1_565  A
C493       Br500   1.920       .  S
C494        C495   1.408       .  A
C494        H499   1.082       .  S
C495        C496   1.418   1_545  A
C496       Br497   1.920       .  S
C501        C502   1.403       .  A
C501        C506   1.397       .  A
C501        H508   1.084       .  S
C502        C503   1.411       .  A
C503        C504   1.400       .  A
C503       Br510   1.919       .  S
C504        C505   1.403       .  A
C504        H509   1.084       .  S
C505        C506   1.410       .  A
C506       Br507   1.920   1_554  S
C511        C512   1.408   1_556  A
C511        C516   1.399       .  A
C511        H518   1.083       .  S
C512        C513   1.417       .  A
C513        C514   1.399   1_554  A
C513       Br520   1.920       .  S
C514        C515   1.398       .  A
C514        H519   1.084   1_566  S
C515        C516   1.403       .  A
C516       Br517   1.918       .  S
C521        C522   1.400       .  A
C521        C526   1.397       .  A
C521        H528   1.084       .  S
C522        C523   1.404       .  A
C523        C524   1.401       .  A
C523       Br530   1.919       .  S
C524        C525   1.408       .  A
C524        H529   1.083       .  S
C525        C526   1.414       .  A
C526       Br527   1.920       .  S
C531        C532   1.410       .  A
C531        C536   1.394       .  A
C531        H538   1.083       .  S
C532        C533   1.416       .  A
C533        C534   1.405       .  A
C533       Br540   1.920       .  S
C534        C535   1.406       .  A
C534        H539   1.083       .  S
C535        C536   1.408       .  A
C536       Br537   1.922       .  S
C541        C542   1.404       .  A
C541        C546   1.402       .  A
C541        H548   1.083       .  S
C542        C543   1.415       .  A
C543        C544   1.397       .  A
C543       Br550   1.923       .  S
C544        C545   1.398       .  A
C544        H549   1.084       .  S
C545        C546   1.409       .  A
C546       Br547   1.918       .  S
C551        C552   1.400       .  A
C551        C556   1.401       .  A
C551        H558   1.084       .  S
C552        C553   1.407       .  A
C553        C554   1.396       .  A
C553       Br560   1.921       .  S
C554        C555   1.404       .  A
C554        H559   1.083       .  S
C555        C556   1.416       .  A
C556       Br557   1.920       .  S
C561        C562   1.406       .  A
C561        C566   1.398       .  A
C561        H568   1.083       .  S
C562        C563   1.416       .  A
C563        C564   1.399       .  A
C563       Br570   1.920       .  S
C564        C565   1.401       .  A
C564        H569   1.084       .  S
C565        C566   1.407       .  A
C566       Br567   1.919       .  S
C571        C572   1.404       .  A
C571        C576   1.400       .  A
C571        H578   1.083       .  S
C572        C573   1.413       .  A
C573        C574   1.399       .  A
C573       Br580   1.920       .  S
C574        C575   1.402       .  A
C574        H579   1.084       .  S
C575        C576   1.408       .  A
C576       Br577   1.918       .  S
C581        C582   1.409       .  A
C581        C586   1.400       .  A
C581        H588   1.083       .  S
C582        C583   1.419       .  A
C583        C584   1.399       .  A
C583       Br590   1.920       .  S
C584        C585   1.398       .  A
C584        H589   1.084       .  S
C585        C586   1.403       .  A
C586       Br587   1.918       .  S
C591        C592   1.405       .  A
C591        C596   1.396       .  A
C591        H598   1.083       .  S
C592        C593   1.416       .  A
C593        C594   1.403       .  A
C593       Br600   1.919       .  S
C594        C595   1.401       .  A
C594        H599   1.084       .  S
C595        C596   1.405       .  A
C596       Br597   1.913       .  S
C601        C602   1.403       .  A
C601        C606   1.401       .  A
C601        H608   1.084       .  S
C602        C603   1.406       .  A
C603        C604   1.398       .  A
C603       Br610   1.919       .  S
C604        C605   1.403       .  A
C604        H609   1.084       .  S
C605        C606   1.407       .  A
C606       Br607   1.917       .  S
C611        C612   1.401       .  A
C611        C616   1.397       .  A
C611        H618   1.084       .  S
C612        C613   1.405       .  A
C613        C614   1.401       .  A
C613       Br620   1.918       .  S
C614        C615   1.409       .  A
C614        H619   1.083       .  S
C615        C616   1.414       .  A
C616       Br617   1.921       .  S
C621        C622   1.403       .  A
C621        C626   1.399       .  A
C621        H628   1.084       .  S
C622        C623   1.410       .  A
C623        C624   1.398       .  A
C623       Br630   1.920       .  S
C624        C625   1.403       .  A
C624        H629   1.084       .  S
C625        C626   1.410       .  A
C626       Br627   1.919       .  S
C631        C632   1.407       .  A
C631        C636   1.399       .  A
C631        H638   1.083       .  S
C632        C633   1.416       .  A
C633        C634   1.398       .  A
C633       Br640   1.920       .  S
C634        C635   1.398       .  A
C634        H639   1.079       .  S
C635        C636   1.407       .  A
C636       Br637   1.920       .  S
C641        C642   1.403       .  A
C641        C646   1.398       .  A
C641        H648   1.084       .  S
C642        C643   1.411       .  A
C643        C644   1.399       .  A
C643       Br650   1.920       .  S
C644        C645   1.402       .  A
C644        H649   1.084       .  S
C645        C646   1.408       .  A
C646       Br647   1.919       .  S
C651        C652   1.404       .  A
C651        C656   1.399       .  A
C651        H658   1.083       .  S
C652        C653   1.412       .  A
C653        C654   1.396       .  A
C653       Br660   1.921       .  S
C654        C655   1.403       .  A
C654        H659   1.083       .  S
C655        C656   1.412       .  A
C656       Br657   1.920       .  S
C661        C662   1.399       .  A
C661        C666   1.397       .  A
C661        H668   1.084       .  S
C662        C663   1.405       .  A
C663        C664   1.399       .  A
C663       Br670   1.918       .  S
C664        C665   1.406       .  A
C664        H669   1.083       .  S
C665        C666   1.415       .  A
C666       Br667   1.921       .  S
C671        C672   1.408       .  A
C671        C676   1.398       .  A
C671        H678   1.083       .  S
C672        C673   1.417       .  A
C673        C674   1.400       .  A
C673       Br680   1.920       .  S
C674        C675   1.398       .  A
C674        H679   1.084       .  S
C675        C676   1.403       .  A
C676       Br677   1.919       .  S
C681        C682   1.405       .  A
C681        C686   1.398       .  A
C681        H688   1.083       .  S
C682        C683   1.414       .  A
C683        C684   1.398       .  A
C683       Br690   1.920       .  S
C684        C685   1.403       .  A
C684        H689   1.083       .  S
C685        C686   1.411       .  A
C686       Br687   1.920       .  S
C691        C692   1.402       .  A
C691        C696   1.399       .  A
C691        H698   1.084       .  S
C692        C693   1.409       .  A
C693        C694   1.397       .  A
C693       Br700   1.920   1_565  S
C694        C695   1.403       .  A
C694        H699   1.084       .  S
C695        C696   1.411       .  A
C696       Br697   1.919       .  S
C701        C702   1.404       .  A
C701        C706   1.397       .  A
C701        H708   1.083       .  S
C702        C703   1.415       .  A
C703        C704   1.401       .  A
C703       Br710   1.919       .  S
C704        C705   1.400       .  A
C704        H709   1.084       .  S
C705        C706   1.407       .  A
C706       Br707   1.920       .  S
C711        C712   1.400       .  A
C711        C716   1.401       .  A
C711        H718   1.084       .  S
C712        C713   1.409       .  A
C713        C714   1.396       .  A
C713       Br720   1.920       .  S
C714        C715   1.405       .  A
C714        H719   1.083       .  S
C715        C716   1.416       .  A
C716       Br717   1.920       .  S
C721        C722   1.402       .  A
C721        C726   1.400       .  A
C721        H728   1.084       .  S
C722        C723   1.409       .  A
C723        C724   1.397       .  A
C723       Br730   1.918       .  S
C724        C725   1.400       .  A
C724        H729   1.084       .  S
C725        C726   1.407       .  A
C726       Br727   1.918       .  S
C731        C732   1.403       .  A
C731        C736   1.400       .  A
C731        H738   1.084       .  S
C732        C733   1.409       .  A
C733        C734   1.399       .  A
C733       Br740   1.919       .  S
C734        C735   1.403       .  A
C734        H739   1.083       .  S
C735        C736   1.412       .  A
C736       Br737   1.920       .  S
C741        C742   1.397       .  A
C741        C746   1.399       .  A
C741        H748   1.084       .  S
C742        C743   1.402       .  A
C743        C744   1.398   1_565  A
C743       Br750   1.919       .  S
C744        C745   1.411       .  A
C744        H749   1.082       .  S
C745        C746   1.421   1_545  A
C746       Br747   1.919       .  S
C751        C752   1.403       .  A
C751        C756   1.401       .  A
C751        H758   1.083       .  S
C752        C753   1.407       .  A
C753        C754   1.397       .  A
C753       Br760   1.919       .  S
C754        C755   1.403       .  A
C754        H759   1.084       .  S
C755        C756   1.407       .  A
C756       Br757   1.918       .  S
