geometry optimzed in LAMMPS
_audit_creation_date              2020-11-30 
_audit_creation_method            'lammps2cif' 
_symmetry_space_group_name_H-M    'P1' 
_symmetry_Int_Tables_number       1 
_symmetry_cell_setting            triclinic 
loop_ 
_symmetry_equiv_pos_as_xyz 
  x,y,z 
_cell_length_a                    65.35557608 
_cell_length_b                    44.71216224964496 
_cell_length_c                    25.95450053425348 
_cell_angle_alpha                 89.80733140844993 
_cell_angle_beta                  89.65124639419426 
_cell_angle_gamma                 89.95444978512093 
loop_ 
_atom_site_label 
_atom_site_type_symbol 
_atom_site_fract_x 
_atom_site_fract_y 
_atom_site_fract_z 
_atom_site_charge 
N1          N  0.87753440  0.23846914  0.08588990    -0.27500
N2          N  0.86646465  0.25752327  0.05890421    -0.35300
C3          C  0.85233438  0.27000506  0.08969947     0.00900
C4          C  0.85443917  0.25818646  0.13875858     0.06900
C5          C  0.87064543  0.23822415  0.13498274    -0.06200
H6          H  0.84067939  0.28532616  0.07640662     0.07600
H7          H  0.87661806  0.22400323  0.16516575     0.08800
Cu8        Cu  0.86878383  0.26214267  0.97996594     0.44200
Cu9        Cu  0.90055534  0.21354528  0.05116238     0.42000
Cu10       Cu  0.90015924  0.21120335  0.40793408     0.43900
N11         N  0.86666328  0.25660606  0.40129849    -0.34900
N12         N  0.87735396  0.23698153  0.37436032    -0.29100
C13         C  0.87034156  0.23674206  0.32558275    -0.05200
C14         C  0.85452436  0.25733716  0.32197973     0.07000
C15         C  0.85270558  0.26943307  0.37077411     0.00800
H16         H  0.87605558  0.22224815  0.29548080     0.08500
H17         H  0.84135704  0.28526537  0.38415509     0.07500
N18         N  0.92288905  0.19304125  0.45422426    -0.36300
N19         N  0.92322648  0.19471124  0.00514079    -0.28500
C20         C  0.94113792  0.18381946  0.02206480    -0.03700
C21         C  0.95259845  0.17458255  0.48007810     0.04900
C22         C  0.94048571  0.18059454  0.43769167     0.03000
H23         H  0.94577536  0.18360738  0.06200969     0.08100
H24         H  0.94443848  0.17714861  0.39762978     0.06900
N25         N  0.17875392  0.05279581  0.40457110    -0.27500
N26         N  0.18947055  0.03320877  0.43131337    -0.35300
C27         C  0.20334865  0.02018502  0.40043638     0.00900
C28         C  0.20138821  0.03211510  0.35146770     0.06900
C29         C  0.18561170  0.05282174  0.35546330    -0.06200
H30         H  0.21447249  0.50395193  0.41338645     0.07600
H31         H  0.17960181  0.06691811  0.32516642     0.08800
Cu32       Cu  0.18619561  0.02738602  0.50957525     0.44200
Cu33       Cu  0.15548811  0.07750471  0.43918702     0.42000
Cu34       Cu  0.15061549  0.07100327  0.08246519     0.43900
N35         N  0.18685825  0.03061291  0.08857066    -0.34900
N36         N  0.17458224  0.04761854  0.11651429    -0.29100
C37         C  0.18121357  0.04741445  0.16573732    -0.05200
C38         C  0.19841940  0.02922979  0.16829683     0.07000
C39         C  0.20140875  0.01903556  0.11865364     0.00800
H40         H  0.17444100  0.06018787  0.19676901     0.08500
H41         H  0.21402741  0.50564220  0.10447574     0.07500
N42         N  0.12891119  0.09001700  0.03373554    -0.36300
N43         N  0.13100820  0.09314459  0.48318141    -0.28500
C44         C  0.11367500  0.10478692  0.46395127    -0.03700
C45         C  0.09988174  0.10879615  0.50394006     0.04900
C46         C  0.11008057  0.09931632  0.04762741     0.03000
H47         H  0.11096587  0.10870344  0.42340621     0.08100
H48         H  0.10394654  0.09805357  0.08637759     0.06900
C49         C  0.31330113  0.25036366  0.26014619     0.86300
C50         C  0.32945879  0.24959533  0.21689000    -0.53900
C51         C  0.34306185  0.27265640  0.21716918     0.09200
C52         C  0.34060339  0.29325050  0.26406821     0.20200
C53         C  0.32670175  0.24941704  0.30846284    -0.54700
C54         C  0.34088668  0.27182100  0.31087706     0.09300
C55         C  0.30422528  0.28194430  0.25877718    -0.54200
C56         C  0.31837864  0.30432336  0.26109671     0.09900
H57         H  0.33082166  0.23155796  0.18946685     0.14400
H58         H  0.35192456  0.31169952  0.26557810     0.00200
H59         H  0.32536543  0.23209848  0.33771380     0.14700
H60         H  0.28793708  0.28627256  0.25557316     0.14500
C61         C  0.24058086  0.49888542  0.25561785     0.86300
C62         C  0.22757014  0.00139804  0.30515447    -0.53900
C63         C  0.21430851  0.02508585  0.30601181     0.09200
C64         C  0.21577487  0.04499934  0.25772157     0.20200
C65         C  0.22545013  0.99990029  0.21126592    -0.54700
C66         C  0.21250992  0.02378635  0.21172420     0.09300
C67         C  0.25147553  0.02943693  0.25433024    -0.54200
C68         C  0.23862743  0.05364081  0.25535201     0.09900
H69         H  0.22925592  0.48615439  0.33744821     0.14400
H70         H  0.20531789  0.06453888  0.25852662     0.00200
H71         H  0.22528635  0.48297766  0.18136620     0.14700
H72         H  0.26790572  0.03201856  0.25627835     0.14500
C73         C  0.73751110  0.03953255  0.24787180     0.85700
C74         C  0.71986456  0.04021154  0.20896063    -0.53900
C75         C  0.70776756  0.01544164  0.20914251     0.09200
C76         C  0.71307357  0.49303553  0.25204903     0.20200
C77         C  0.72585187  0.03622729  0.29934225    -0.54700
C78         C  0.71310041  0.01188454  0.30178206     0.09300
C79         C  0.74827475  0.00939614  0.23964342    -0.54200
C80         C  0.73566110  0.48520946  0.24266096     0.09900
H81         H  0.71635735  0.05909601  0.18446794     0.14400
H82         H  0.70304223  0.47304468  0.25343857     0.00200
H83         H  0.72729632  0.05213886  0.33057362     0.14700
H84         H  0.76466573  0.00728209  0.23375701     0.14500
C85         C  0.81336627  0.28881831  0.23175350     0.86300
C86         C  0.82774726  0.28719895  0.27797032    -0.53900
C87         C  0.84091394  0.26354540  0.27785671     0.09200
C88         C  0.83864086  0.24309674  0.23074584     0.20200
C89         C  0.82722837  0.28722687  0.18379811    -0.54700
C90         C  0.84071649  0.26384078  0.18333762     0.09300
C91         C  0.80275481  0.25796078  0.23014626    -0.54200
C92         C  0.81592340  0.23410580  0.23146936     0.09900
H93         H  0.82721122  0.30357449  0.30870266     0.14400
H94         H  0.84917270  0.22362900  0.23071869     0.00200
H95         H  0.82606030  0.30312826  0.15227855     0.14700
H96         H  0.78648375  0.25458040  0.22608903     0.14500
N97         N  0.37940374  0.29022791  0.40635050    -0.27500
N98         N  0.36653589  0.27429102  0.43449823    -0.35300
C99         C  0.35135404  0.26441769  0.40449589     0.00900
C100        C  0.35477475  0.27490694  0.35499373     0.06900
C101        C  0.37271091  0.29121697  0.35747199    -0.06200
H102        H  0.33817116  0.25215469  0.41844561     0.07600
H103        H  0.38000222  0.30366414  0.32665002     0.08800
Cu104      Cu  0.36845608  0.27161460  0.51350592     0.44200
Cu105      Cu  0.40388492  0.31187776  0.43899387     0.42000
Cu106      Cu  0.39986546  0.32556785  0.07935957     0.43900
N107        N  0.36765571  0.27866415  0.09183910    -0.34900
N108        N  0.37808090  0.29936162  0.11661157    -0.29100
C109        C  0.37176877  0.29983498  0.16623096    -0.05200
C110        C  0.35675079  0.27820257  0.17258866     0.07000
C111        C  0.35462735  0.26538016  0.12450315     0.00800
H112        H  0.37725347  0.31533666  0.19490693     0.08500
H113        H  0.34349697  0.24889480  0.11286161     0.07500
N114        N  0.42353334  0.34039682  0.03198425    -0.36300
N115        N  0.42547785  0.33363890  0.48260859    -0.28500
C116        C  0.44391554  0.34262004  0.46568220    -0.03700
C117        C  0.45403510  0.35608655  0.50597863     0.04900
C118        C  0.44057625  0.35453100  0.04732665     0.03000
H119        H  0.44976818  0.33869916  0.42723307     0.08100
H120        H  0.44329596  0.36193918  0.08631564     0.06900
N121        N  0.67764986  0.98441447  0.40068212    -0.27500
N122        N  0.68844220  0.00368761  0.42764641    -0.35300
C123        C  0.70253913  0.01647839  0.39682531     0.00900
C124        C  0.70055095  0.00467115  0.34784767     0.06900
C125        C  0.68459923  0.98434463  0.35174429    -0.06200
H126        H  0.71369147  0.03265964  0.40958150     0.07600
H127        H  0.67843709  0.97054828  0.32141942     0.08800
Cu128      Cu  0.68427762  0.00957994  0.50593988     0.44200
Cu129      Cu  0.65423318  0.45965956  0.43402855     0.42000
Cu130      Cu  0.65251375  0.45784423  0.07679327     0.43900
N131        N  0.68335959  0.00664655  0.08536126    -0.34900
N132        N  0.67302850  0.98637930  0.11196583    -0.29100
C133        C  0.67897068  0.98739758  0.16162770    -0.05200
C134        C  0.69360074  0.00964199  0.16620163     0.07000
C135        C  0.69583643  0.02133483  0.11708980     0.00800
H136        H  0.67381541  0.97211725  0.19137035     0.08500
H137        H  0.70715669  0.03739003  0.10415197     0.07500
N138        N  0.63067695  0.43934257  0.02899251    -0.36300
N139        N  0.63104438  0.44059044  0.47801312    -0.28500
C140        C  0.61320496  0.43014281  0.45992886    -0.03700
C141        C  0.60109181  0.42195732  0.50140094     0.04900
C142        C  0.61265697  0.42791291  0.04452952     0.03000
H143        H  0.60895536  0.43002108  0.41970592     0.08100
H144        H  0.60787745  0.42571212  0.08432896     0.06900
C145        C  0.47545859  0.36675390  0.50556447     0.01200
C146        C  0.48229304  0.38632968  0.46613991     0.04000
C147        C  0.50294065  0.39499173  0.46378733    -0.12100
C148        C  0.51665472  0.38505033  0.50168799     0.23300
C149        C  0.50987593  0.36613665  0.04165381    -0.12700
C150        C  0.48943091  0.35647407  0.04314317     0.04700
C151        C  0.53821157  0.39491583  0.50013898     0.27100
C152        C  0.55300134  0.37769814  0.47400412    -0.13300
C153        C  0.57364372  0.38649232  0.47445996     0.05200
C154        C  0.57941415  0.41289997  0.50015011    -0.09300
C155        C  0.56439967  0.43070261  0.02462866     0.06000
C156        C  0.54388530  0.42140955  0.02534394    -0.13700
Br157      Br  0.52881289  0.35345820  0.09424923    -0.05700
Br158      Br  0.46339278  0.40270762  0.41652355    -0.00100
Br159      Br  0.59404142  0.36164864  0.44169377     0.00300
Br160      Br  0.52341993  0.44480682  0.06098763    -0.04100
Br161      Br  0.48138309  0.32749619  0.09479073     0.00400
Br162      Br  0.51263100  0.42052898  0.40869938    -0.03400
Br163      Br  0.54484816  0.34204015  0.43784802    -0.04200
Br164      Br  0.57152927  0.46873313  0.05461234    -0.00300
C165        C  0.75272056  0.06587459  0.24500887     0.01200
C166        C  0.75351744  0.08534655  0.20166339     0.04000
C167        C  0.76305058  0.11322026  0.20566998    -0.12100
C168        C  0.77705106  0.11843036  0.24552034     0.23300
C169        C  0.78017253  0.09608360  0.28308166    -0.12700
C170        C  0.76738095  0.07063788  0.28456104     0.04700
C171        C  0.78925551  0.14650305  0.24545403     0.27100
C172        C  0.80330231  0.15236863  0.20507672    -0.13300
C173        C  0.81214621  0.18095357  0.19996628     0.05200
C174        C  0.80846259  0.20289161  0.23785702    -0.09300
C175        C  0.79665865  0.19544666  0.28176455     0.06000
C176        C  0.78612512  0.16810218  0.28412957    -0.13700
Br177      Br  0.80240615  0.10000429  0.33132396    -0.05700
Br178      Br  0.74964608  0.07096558  0.13213407    -0.00100
Br179      Br  0.82812715  0.19013679  0.13943639     0.00300
Br180      Br  0.76657801  0.16115263  0.33896496    -0.04100
Br181      Br  0.77155084  0.04180479  0.33906514     0.00400
Br182      Br  0.75691062  0.14386234  0.15541834    -0.03400
Br183      Br  0.81013669  0.12130447  0.15624984    -0.04200
Br184      Br  0.79589392  0.22188464  0.34032479    -0.00300
C185        C  0.74382283  0.45432692  0.24195929     0.01200
C186        C  0.74328801  0.43720849  0.19649358     0.04000
C187        C  0.75346048  0.40945750  0.19436386    -0.12100
C188        C  0.76429551  0.39894828  0.23751481     0.23300
C189        C  0.76414363  0.41551403  0.28360830    -0.12700
C190        C  0.75371769  0.44296342  0.28599381     0.04700
C191        C  0.77633144  0.37085937  0.23444097     0.27100
C192        C  0.76747388  0.34369609  0.24982500    -0.13300
C193        C  0.77952149  0.31763784  0.25349657     0.05200
C194        C  0.80009705  0.31749641  0.23460057    -0.09300
C195        C  0.80924371  0.34588846  0.22363744     0.06000
C196        C  0.79726281  0.37206352  0.22235075    -0.13700
Br197      Br  0.77876357  0.40091863  0.34304282    -0.05700
Br198      Br  0.72924240  0.45211824  0.13667748    -0.00100
Br199      Br  0.76882930  0.28673065  0.29818476     0.00300
Br200      Br  0.80955067  0.41020723  0.20534516    -0.04100
Br201      Br  0.75289535  0.46486033  0.34986178     0.00400
Br202      Br  0.75309878  0.38602845  0.13214973    -0.03400
Br203      Br  0.73877715  0.34284392  0.26839630    -0.04200
Br204      Br  0.83863665  0.35087943  0.21730077    -0.00300
C205        C  0.25413516  0.47069054  0.25265556     0.01200
C206        C  0.27365321  0.47077895  0.22787606     0.04000
C207        C  0.28683372  0.44602071  0.23293559    -0.12100
C208        C  0.27984114  0.41961272  0.25656703     0.23300
C209        C  0.25950060  0.41771610  0.27405217    -0.12700
C210        C  0.24641768  0.44258595  0.26999928     0.04700
C211        C  0.29262809  0.39221460  0.25554065     0.27100
C212        C  0.29251278  0.37393282  0.21143174    -0.13300
C213        C  0.30275126  0.34633107  0.21191667     0.05200
C214        C  0.31224113  0.33615590  0.25731973    -0.09300
C215        C  0.31339757  0.35518623  0.30049079     0.06000
C216        C  0.30364851  0.38329885  0.29945291    -0.13700
Br217      Br  0.24940929  0.38036486  0.30202438    -0.05700
Br218      Br  0.28067050  0.49992663  0.17539715    -0.00100
Br219      Br  0.30382984  0.32234240  0.15022522     0.00300
Br220      Br  0.30427799  0.40900143  0.35897451    -0.04100
Br221      Br  0.21737514  0.43570645  0.27962286     0.00400
Br222      Br  0.31435047  0.44760078  0.20548863    -0.03400
Br223      Br  0.27706182  0.38576334  0.15156220    -0.04200
Br224      Br  0.32724735  0.34236621  0.36201666    -0.00300
C225        C  0.29680236  0.22593749  0.25768760     0.01200
C226        C  0.29324843  0.20962753  0.21183324     0.04000
C227        C  0.28406627  0.18141696  0.21453255    -0.12100
C228        C  0.27381164  0.17250383  0.25987046     0.23300
C229        C  0.27278053  0.19234381  0.30192198    -0.12700
C230        C  0.28458357  0.21874432  0.30147170     0.04700
C231        C  0.26353402  0.14291819  0.26222066     0.27100
C232        C  0.24670867  0.13691670  0.23021378    -0.13300
C233        C  0.23925288  0.10755317  0.22591914     0.05200
C234        C  0.24639639  0.08491431  0.25946391    -0.09300
C235        C  0.26155466  0.09212757  0.29620629     0.06000
C236        C  0.27112240  0.12027090  0.29477195    -0.13700
Br237      Br  0.25521974  0.18317393  0.35994888    -0.05700
Br238      Br  0.29476834  0.22844378  0.14459331    -0.00100
Br239      Br  0.22108469  0.09852024  0.17002055     0.00300
Br240      Br  0.29523123  0.12727172  0.33573989    -0.04100
Br241      Br  0.28262446  0.24554003  0.35962065     0.00400
Br242      Br  0.28634741  0.15494204  0.15609567    -0.03400
Br243      Br  0.23392067  0.16900130  0.19203177    -0.04200
Br244      Br  0.26850729  0.06465382  0.35105603    -0.00300
C245        C  0.07811619  0.11779529  0.50009860     0.01200
C246        C  0.06465521  0.10186581  0.46772382     0.04000
C247        C  0.04402401  0.11055677  0.46397380    -0.12100
C248        C  0.03661577  0.13470288  0.49329984     0.23300
C249        C  0.04986568  0.15029113  0.02628936    -0.12700
C250        C  0.07062769  0.14212267  0.02924144     0.04700
C251        C  0.01496680  0.14418723  0.48853295     0.27100
C252        C  0.00981639  0.16776456  0.45496728    -0.13300
C253        C  0.98940448  0.17755233  0.45146010     0.05200
C254        C  0.97393020  0.16330111  0.48094832    -0.09300
C255        C  0.97911649  0.13904997  0.01345283     0.06000
C256        C  0.99961912  0.12980114  0.01767080    -0.13700
Br257      Br  0.03942187  0.18294654  0.06723225    -0.05700
Br258      Br  0.07394748  0.06713429  0.43022013    -0.00100
Br259      Br  0.98326755  0.21176764  0.40863890     0.00300
Br260      Br  0.00686094  0.09763579  0.06389043    -0.04100
Br261      Br  0.08892736  0.16542945  0.07114448     0.00400
Br262      Br  0.02575126  0.08948605  0.41857445    -0.03400
Br263      Br  0.03098868  0.18692695  0.41448322    -0.04200
Br264      Br  0.95813594  0.11745345  0.05077805    -0.00300
N265        N  0.87753443  0.23846911  0.58588991    -0.27500
N266        N  0.86646473  0.25752331  0.55890427    -0.35300
C267        C  0.85233448  0.27000515  0.58969950     0.00900
C268        C  0.85443921  0.25818655  0.63875858     0.06900
C269        C  0.87064545  0.23822412  0.63498281    -0.06200
H270        H  0.84067945  0.28532629  0.57640653     0.07600
H271        H  0.87661800  0.22400327  0.66516562     0.08800
Cu272      Cu  0.86878385  0.26214259  0.47996604     0.44200
Cu273      Cu  0.90055542  0.21354520  0.55116256     0.42000
Cu274      Cu  0.90015920  0.21120327  0.90793412     0.43900
N275        N  0.86666325  0.25660598  0.90129844    -0.34900
N276        N  0.87735392  0.23698148  0.87436036    -0.29100
C277        C  0.87034153  0.23674197  0.82558273    -0.05200
C278        C  0.85452430  0.25733704  0.82197973     0.07000
C279        C  0.85270550  0.26943299  0.87077408     0.00800
H280        H  0.87605556  0.22224811  0.79548091     0.08500
H281        H  0.84135700  0.28526520  0.88415502     0.07500
N282        N  0.92288906  0.19304133  0.95422424    -0.36300
N283        N  0.92322649  0.19471115  0.50514085    -0.28500
C284        C  0.94113795  0.18381942  0.52206482    -0.03700
C285        C  0.95259844  0.17458258  0.98007809     0.04900
C286        C  0.94048572  0.18059459  0.93769162     0.03000
H287        H  0.94577542  0.18360738  0.56200972     0.08100
H288        H  0.94443846  0.17714861  0.89762978     0.06900
N289        N  0.17875393  0.05279586  0.90457115    -0.27500
N290        N  0.18947053  0.03320879  0.93131342    -0.35300
C291        C  0.20334860  0.02018503  0.90043637     0.00900
C292        C  0.20138820  0.03211513  0.85146772     0.06900
C293        C  0.18561170  0.05282183  0.85546331    -0.06200
H294        H  0.21447257  0.50395206  0.91338628     0.07600
H295        H  0.17960181  0.06691817  0.82516653     0.08800
Cu296      Cu  0.18619550  0.02738611  0.00957537     0.44200
Cu297      Cu  0.15548808  0.07750463  0.93918717     0.42000
Cu298      Cu  0.15061548  0.07100314  0.58246497     0.43900
N299        N  0.18685827  0.03061294  0.58857054    -0.34900
N300        N  0.17458222  0.04761845  0.61651416    -0.29100
C301        C  0.18121353  0.04741434  0.66573729    -0.05200
C302        C  0.19841938  0.02922970  0.66829674     0.07000
C303        C  0.20140880  0.01903558  0.61865349     0.00800
H304        H  0.17444098  0.06018766  0.69676889     0.08500
H305        H  0.21402735  0.50564207  0.60447566     0.07500
N306        N  0.12891118  0.09001686  0.53373537    -0.36300
N307        N  0.13100821  0.09314467  0.98318155    -0.28500
C308        C  0.11367499  0.10478695  0.96395140    -0.03700
C309        C  0.09988172  0.10879615  0.00394021     0.04900
C310        C  0.11008056  0.09931621  0.54762727     0.03000
H311        H  0.11096587  0.10870346  0.92340637     0.08100
H312        H  0.10394654  0.09805339  0.58637736     0.06900
C313        C  0.31330114  0.25036367  0.76014607     0.86300
C314        C  0.32945883  0.24959532  0.71688994    -0.53900
C315        C  0.34306192  0.27265636  0.71716922     0.09200
C316        C  0.34060343  0.29325050  0.76406820     0.20200
C317        C  0.32670173  0.24941705  0.80846276    -0.54700
C318        C  0.34088666  0.27182101  0.81087707     0.09300
C319        C  0.30422529  0.28194432  0.75877697    -0.54200
C320        C  0.31837867  0.30432337  0.76109653     0.09900
H321        H  0.33082171  0.23155799  0.68946676     0.14400
H322        H  0.35192460  0.31169950  0.76557814     0.00200
H323        H  0.32536540  0.23209847  0.83771366     0.14700
H324        H  0.28793715  0.28627259  0.75557294     0.14500
C325        C  0.24058085  0.49888542  0.75561774     0.86300
C326        C  0.22757012  0.00139805  0.80515454    -0.53900
C327        C  0.21430847  0.02508583  0.80601179     0.09200
C328        C  0.21577482  0.04499929  0.75772153     0.20200
C329        C  0.22545014  0.99990027  0.71126597    -0.54700
C330        C  0.21250990  0.02378625  0.71172415     0.09300
C331        C  0.25147549  0.02943696  0.75433036    -0.54200
C332        C  0.23862738  0.05364081  0.75535205     0.09900
H333        H  0.22925593  0.48615442  0.83744816     0.14400
H334        H  0.20531782  0.06453876  0.75852650     0.00200
H335        H  0.22528632  0.48297768  0.68136612     0.14700
H336        H  0.26790566  0.03201861  0.75627865     0.14500
C337        C  0.73751110  0.03953252  0.74787162     0.85700
C338        C  0.71986457  0.04021147  0.70896044    -0.53900
C339        C  0.70776755  0.01544156  0.70914245     0.09200
C340        C  0.71307357  0.49303552  0.75204908     0.20200
C341        C  0.72585187  0.03622733  0.79934214    -0.54700
C342        C  0.71310041  0.01188455  0.80178201     0.09300
C343        C  0.74827474  0.00939610  0.73964327    -0.54200
C344        C  0.73566110  0.48520947  0.74266107     0.09900
H345        H  0.71635736  0.05909588  0.68446768     0.14400
H346        H  0.70304224  0.47304467  0.75343856     0.00200
H347        H  0.72729633  0.05213885  0.83057338     0.14700
H348        H  0.76466570  0.00728206  0.73375672     0.14500
C349        C  0.81336625  0.28881831  0.73175341     0.86300
C350        C  0.82774721  0.28719885  0.77797028    -0.53900
C351        C  0.84091389  0.26354531  0.77785669     0.09200
C352        C  0.83864084  0.24309671  0.73074575     0.20200
C353        C  0.82722839  0.28722691  0.68379810    -0.54700
C354        C  0.84071651  0.26384080  0.68333761     0.09300
C355        C  0.80275479  0.25796078  0.73014603    -0.54200
C356        C  0.81592337  0.23410580  0.73146918     0.09900
H357        H  0.82721117  0.30357444  0.80870271     0.14400
H358        H  0.84917267  0.22362895  0.73071854     0.00200
H359        H  0.82606036  0.30312833  0.65227858     0.14700
H360        H  0.78648373  0.25458040  0.72608877     0.14500
N361        N  0.37940369  0.29022796  0.90635064    -0.27500
N362        N  0.36653587  0.27429100  0.93449828    -0.35300
C363        C  0.35135401  0.26441762  0.90449592     0.00900
C364        C  0.35477473  0.27490694  0.85499376     0.06900
C365        C  0.37271086  0.29121706  0.85747209    -0.06200
H366        H  0.33817118  0.25215469  0.91844560     0.07600
H367        H  0.38000212  0.30366430  0.82665025     0.08800
Cu368      Cu  0.36845596  0.27161472  0.01350601     0.44200
Cu369      Cu  0.40388489  0.31187784  0.93899400     0.42000
Cu370      Cu  0.39986548  0.32556775  0.57935960     0.43900
N371        N  0.36765573  0.27866409  0.59183909    -0.34900
N372        N  0.37808093  0.29936152  0.61661154    -0.29100
C373        C  0.37176881  0.29983495  0.66623097    -0.05200
C374        C  0.35675084  0.27820255  0.67258869     0.07000
C375        C  0.35462734  0.26538015  0.62450318     0.00800
H376        H  0.37725350  0.31533664  0.69490685     0.08500
H377        H  0.34349694  0.24889489  0.61286173     0.07500
N378        N  0.42353333  0.34039670  0.53198411    -0.36300
N379        N  0.42547783  0.33363900  0.98260870    -0.28500
C380        C  0.44391551  0.34262013  0.96568227    -0.03700
C381        C  0.45403508  0.35608664  0.00597870     0.04900
C382        C  0.44057625  0.35453090  0.54732662     0.03000
H383        H  0.44976814  0.33869922  0.92723317     0.08100
H384        H  0.44329591  0.36193905  0.58631540     0.06900
N385        N  0.67764995  0.98441447  0.90068229    -0.27500
N386        N  0.68844228  0.00368756  0.92764654    -0.35300
C387        C  0.70253924  0.01647835  0.89682543     0.00900
C388        C  0.70055102  0.00467113  0.84784777     0.06900
C389        C  0.68459929  0.98434459  0.85174438    -0.06200
H390        H  0.71369157  0.03265954  0.90958160     0.07600
H391        H  0.67843716  0.97054828  0.82141973     0.08800
Cu392      Cu  0.68427766  0.00957987  0.00594000     0.44200
Cu393      Cu  0.65423314  0.45965962  0.93402836     0.42000
Cu394      Cu  0.65251374  0.45784431  0.57679339     0.43900
N395        N  0.68335950  0.00664654  0.58536127    -0.34900
N396        N  0.67302846  0.98637926  0.61196584    -0.29100
C397        C  0.67897068  0.98739746  0.66162770    -0.05200
C398        C  0.69360073  0.00964187  0.66620161     0.07000
C399        C  0.69583639  0.02133479  0.61708980     0.00800
H400        H  0.67381542  0.97211712  0.69137032     0.08500
H401        H  0.70715661  0.03738992  0.60415195     0.07500
N402        N  0.63067696  0.43934254  0.52899264    -0.36300
N403        N  0.63104436  0.44059046  0.97801292    -0.28500
C404        C  0.61320493  0.43014289  0.95992882    -0.03700
C405        C  0.60109178  0.42195741  0.00140083     0.04900
C406        C  0.61265698  0.42791283  0.54452963     0.03000
H407        H  0.60895528  0.43002121  0.91970561     0.08100
H408        H  0.60787744  0.42571207  0.58432904     0.06900
C409        C  0.47545857  0.36675395  0.00556449     0.01200
C410        C  0.48229300  0.38632975  0.96614000     0.04000
C411        C  0.50294060  0.39499179  0.96378741    -0.12100
C412        C  0.51665470  0.38505034  0.00168798     0.23300
C413        C  0.50987596  0.36613656  0.54165372    -0.12700
C414        C  0.48943096  0.35647395  0.54314306     0.04700
C415        C  0.53821155  0.39491585  0.00013892     0.27100
C416        C  0.55300132  0.37769824  0.97400388    -0.13300
C417        C  0.57364371  0.38649242  0.97445975     0.05200
C418        C  0.57941413  0.41290005  0.00015004    -0.09300
C419        C  0.56439969  0.43070258  0.52462860     0.06000
C420        C  0.54388533  0.42140958  0.52534383    -0.13700
Br421      Br  0.52881288  0.35345829  0.59424934    -0.05700
Br422      Br  0.46339275  0.40270772  0.91652367    -0.00100
Br423      Br  0.59404140  0.36164874  0.94169351     0.00300
Br424      Br  0.52342002  0.44480694  0.56098741    -0.04100
Br425      Br  0.48138321  0.32749609  0.59479077     0.00400
Br426      Br  0.51263086  0.42052909  0.90869950    -0.03400
Br427      Br  0.54484815  0.34204025  0.93784775    -0.04200
Br428      Br  0.57152927  0.46873324  0.55461174    -0.00300
C429        C  0.75272056  0.06587458  0.74500867     0.01200
C430        C  0.75351745  0.08534653  0.70166318     0.04000
C431        C  0.76305059  0.11322024  0.70566981    -0.12100
C432        C  0.77705105  0.11843037  0.74552018     0.23300
C433        C  0.78017254  0.09608362  0.78308152    -0.12700
C434        C  0.76738094  0.07063788  0.78456090     0.04700
C435        C  0.78925547  0.14650309  0.74545386     0.27100
C436        C  0.80330228  0.15236868  0.70507656    -0.13300
C437        C  0.81214615  0.18095363  0.69996614     0.05200
C438        C  0.80846254  0.20289163  0.73785688    -0.09300
C439        C  0.79665860  0.19544669  0.78176441     0.06000
C440        C  0.78612506  0.16810221  0.78412944    -0.13700
Br441      Br  0.80240624  0.10000435  0.83132364    -0.05700
Br442      Br  0.74964606  0.07096565  0.63213382    -0.00100
Br443      Br  0.82812715  0.19013688  0.63943644     0.00300
Br444      Br  0.76657803  0.16115254  0.83896499    -0.04100
Br445      Br  0.77155085  0.04180472  0.83906487     0.00400
Br446      Br  0.75691059  0.14386242  0.65541840    -0.03400
Br447      Br  0.81013668  0.12130456  0.65624958    -0.04200
Br448      Br  0.79589390  0.22188473  0.84032457    -0.00300
C449        C  0.74382286  0.45432694  0.74195938     0.01200
C450        C  0.74328801  0.43720854  0.69649365     0.04000
C451        C  0.75346047  0.40945754  0.69436384    -0.12100
C452        C  0.76429549  0.39894829  0.73751479     0.23300
C453        C  0.76414365  0.41551401  0.78360832    -0.12700
C454        C  0.75371775  0.44296343  0.78599386     0.04700
C455        C  0.77633143  0.37085942  0.73444094     0.27100
C456        C  0.76747388  0.34369614  0.74982504    -0.13300
C457        C  0.77952150  0.31763791  0.75349651     0.05200
C458        C  0.80009704  0.31749645  0.73460043    -0.09300
C459        C  0.80924370  0.34588851  0.72363732     0.06000
C460        C  0.79726279  0.37206359  0.72235070    -0.13700
Br461      Br  0.77876355  0.40091851  0.84304290    -0.05700
Br462      Br  0.72924238  0.45211834  0.63667760    -0.00100
Br463      Br  0.76882929  0.28673068  0.79818456     0.00300
Br464      Br  0.80955065  0.41020731  0.70534492    -0.04100
Br465      Br  0.75289548  0.46486024  0.84986190     0.00400
Br466      Br  0.75309877  0.38602857  0.63214958    -0.03400
Br467      Br  0.73877715  0.34284384  0.76839641    -0.04200
Br468      Br  0.83863664  0.35087951  0.71730089    -0.00300
C469        C  0.25413515  0.47069052  0.75265552     0.01200
C470        C  0.27365318  0.47077892  0.72787597     0.04000
C471        C  0.28683369  0.44602066  0.73293533    -0.12100
C472        C  0.27984112  0.41961268  0.75656682     0.23300
C473        C  0.25950060  0.41771608  0.77405225    -0.12700
C474        C  0.24641768  0.44258593  0.76999940     0.04700
C475        C  0.29262806  0.39221458  0.75554039     0.27100
C476        C  0.29251275  0.37393280  0.71143149    -0.13300
C477        C  0.30275124  0.34633103  0.71191642     0.05200
C478        C  0.31224114  0.33615592  0.75731949    -0.09300
C479        C  0.31339758  0.35518628  0.80049053     0.06000
C480        C  0.30364851  0.38329889  0.79945263    -0.13700
Br481      Br  0.24940930  0.38036480  0.80202447    -0.05700
Br482      Br  0.28067036  0.49992650  0.67539687    -0.00100
Br483      Br  0.30382983  0.32234230  0.65022499     0.00300
Br484      Br  0.30427798  0.40900152  0.85897423    -0.04100
Br485      Br  0.21737514  0.43570636  0.77962299     0.00400
Br486      Br  0.31435042  0.44760066  0.70548802    -0.03400
Br487      Br  0.27706182  0.38576340  0.65156194    -0.04200
Br488      Br  0.32724734  0.34236630  0.86201641    -0.00300
C489        C  0.29680236  0.22593750  0.75768760     0.01200
C490        C  0.29324844  0.20962748  0.71183330     0.04000
C491        C  0.28406626  0.18141694  0.71453264    -0.12100
C492        C  0.27381163  0.17250385  0.75987057     0.23300
C493        C  0.27278050  0.19234387  0.80192202    -0.12700
C494        C  0.28458356  0.21874438  0.80147173     0.04700
C495        C  0.26353400  0.14291822  0.76222080     0.27100
C496        C  0.24670865  0.13691671  0.73021392    -0.13300
C497        C  0.23925285  0.10755320  0.72591925     0.05200
C498        C  0.24639633  0.08491433  0.75946401    -0.09300
C499        C  0.26155463  0.09212759  0.79620638     0.06000
C500        C  0.27112239  0.12027091  0.79477204    -0.13700
Br501      Br  0.25521959  0.18317405  0.85994868    -0.05700
Br502      Br  0.29476846  0.22844365  0.64459335    -0.00100
Br503      Br  0.22108455  0.09852033  0.67002075     0.00300
Br504      Br  0.29523122  0.12727163  0.83574001    -0.04100
Br505      Br  0.28262445  0.24554011  0.85962071     0.00400
Br506      Br  0.28634740  0.15494194  0.65609583    -0.03400
Br507      Br  0.23392065  0.16900125  0.69203186    -0.04200
Br508      Br  0.26850726  0.06465389  0.85105616    -0.00300
C509        C  0.07811618  0.11779528  0.00009872     0.01200
C510        C  0.06465521  0.10186576  0.96772395     0.04000
C511        C  0.04402400  0.11055670  0.96397398    -0.12100
C512        C  0.03661576  0.13470283  0.99329993     0.23300
C513        C  0.04986570  0.15029112  0.52628938    -0.12700
C514        C  0.07062769  0.14212259  0.52924147     0.04700
C515        C  0.01496679  0.14418719  0.98853301     0.27100
C516        C  0.00981638  0.16776446  0.95496717    -0.13300
C517        C  0.98940447  0.17755225  0.95146005     0.05200
C518        C  0.97393019  0.16330109  0.98094834    -0.09300
C519        C  0.97911650  0.13904994  0.51345267     0.06000
C520        C  0.99961912  0.12980109  0.51767057    -0.13700
Br521      Br  0.03942199  0.18294661  0.56723234    -0.05700
Br522      Br  0.07394746  0.06713420  0.93022030    -0.00100
Br523      Br  0.98326755  0.21176756  0.90863896     0.00300
Br524      Br  0.00686095  0.09763581  0.56389024    -0.04100
Br525      Br  0.08892737  0.16542916  0.57114469     0.00400
Br526      Br  0.02575122  0.08948589  0.91857489    -0.03400
Br527      Br  0.03098867  0.18692681  0.91448298    -0.04200
Br528      Br  0.95813591  0.11745328  0.55077749    -0.00300
N529        N  0.87753443  0.73846910  0.08588988    -0.27500
N530        N  0.86646474  0.75752327  0.05890422    -0.35300
C531        C  0.85233445  0.77000516  0.08969945     0.00900
C532        C  0.85443924  0.75818654  0.13875859     0.06900
C533        C  0.87064545  0.73822414  0.13498277    -0.06200
H534        H  0.84067950  0.78532617  0.07640661     0.07600
H535        H  0.87661803  0.72400324  0.16516570     0.08800
Cu536      Cu  0.86878393  0.76214260  0.97996594     0.44200
Cu537      Cu  0.90055541  0.71354522  0.05116244     0.42000
Cu538      Cu  0.90015928  0.71120332  0.40793403     0.43900
N539        N  0.86666328  0.75660605  0.40129850    -0.34900
N540        N  0.87735394  0.73698148  0.37436036    -0.29100
C541        C  0.87034152  0.73674198  0.32558282    -0.05200
C542        C  0.85452431  0.75733706  0.32197977     0.07000
C543        C  0.85270554  0.76943302  0.37077412     0.00800
H544        H  0.87605557  0.72224807  0.29548082     0.08500
H545        H  0.84135700  0.78526530  0.38415506     0.07500
N546        N  0.92288907  0.69304131  0.45422431    -0.36300
N547        N  0.92322652  0.69471118  0.00514082    -0.28500
C548        C  0.94113796  0.68381938  0.02206477    -0.03700
C549        C  0.95259844  0.67458256  0.48007812     0.04900
C550        C  0.94048569  0.68059451  0.43769170     0.03000
H551        H  0.94577543  0.68360730  0.06200968     0.08100
H552        H  0.94443840  0.67714849  0.39762977     0.06900
N553        N  0.17875391  0.55279582  0.40457103    -0.27500
N554        N  0.18947053  0.53320876  0.43131337    -0.35300
C555        C  0.20334863  0.52018500  0.40043642     0.00900
C556        C  0.20138824  0.53211509  0.35146773     0.06900
C557        C  0.18561174  0.55282176  0.35546331    -0.06200
H558        H  0.21447251  0.00395204  0.41338633     0.07600
H559        H  0.17960189  0.56691817  0.32516632     0.08800
Cu560      Cu  0.18619556  0.52738613  0.50957524     0.44200
Cu561      Cu  0.15548805  0.57750465  0.43918702     0.42000
Cu562      Cu  0.15061553  0.57100322  0.08246513     0.43900
N563        N  0.18685827  0.53061295  0.08857054    -0.34900
N564        N  0.17458223  0.54761847  0.11651424    -0.29100
C565        C  0.18121355  0.54741435  0.16573730    -0.05200
C566        C  0.19841940  0.52922976  0.16829678     0.07000
C567        C  0.20140880  0.51903560  0.11865349     0.00800
H568        H  0.17444095  0.56018772  0.19676906     0.08500
H569        H  0.21402741  0.00564206  0.10447588     0.07500
N570        N  0.12891119  0.59001695  0.03373558    -0.36300
N571        N  0.13100818  0.59314469  0.48318143    -0.28500
C572        C  0.11367497  0.60478699  0.46395136    -0.03700
C573        C  0.09988171  0.60879617  0.50394018     0.04900
C574        C  0.11008055  0.59931619  0.04762736     0.03000
H575        H  0.11096581  0.60870355  0.42340629     0.08100
H576        H  0.10394649  0.59805341  0.08637767     0.06900
C577        C  0.31330116  0.75036363  0.26014612     0.86300
C578        C  0.32945886  0.74959526  0.21689004    -0.53900
C579        C  0.34306190  0.77265633  0.21716920     0.09200
C580        C  0.34060342  0.79325049  0.26406819     0.20200
C581        C  0.32670176  0.74941705  0.30846281    -0.54700
C582        C  0.34088668  0.77182099  0.31087707     0.09300
C583        C  0.30422531  0.78194428  0.25877698    -0.54200
C584        C  0.31837866  0.80432333  0.26109658     0.09900
H585        H  0.33082173  0.73155782  0.18946688     0.14400
H586        H  0.35192456  0.81169949  0.26557808     0.00200
H587        H  0.32536545  0.73209844  0.33771377     0.14700
H588        H  0.28793711  0.78627254  0.25557282     0.14500
C589        C  0.24058083  0.99888543  0.25561775     0.86300
C590        C  0.22757016  0.50139803  0.30515452    -0.53900
C591        C  0.21430852  0.52508579  0.30601184     0.09200
C592        C  0.21577487  0.54499931  0.25772156     0.20200
C593        C  0.22545016  0.49990028  0.21126596    -0.54700
C594        C  0.21250994  0.52378628  0.21172417     0.09300
C595        C  0.25147555  0.52943696  0.25433043    -0.54200
C596        C  0.23862744  0.55364081  0.25535205     0.09900
H597        H  0.22925585  0.98615440  0.33744803     0.14400
H598        H  0.20531790  0.56453877  0.25852658     0.00200
H599        H  0.22528628  0.98297771  0.18136628     0.14700
H600        H  0.26790572  0.53201859  0.25627875     0.14500
C601        C  0.73751106  0.53953255  0.24787170     0.85700
C602        C  0.71986451  0.54021152  0.20896056    -0.53900
C603        C  0.70776751  0.51544159  0.20914251     0.09200
C604        C  0.71307361  0.99303553  0.25204902     0.20200
C605        C  0.72585185  0.53622729  0.29934219    -0.54700
C606        C  0.71310038  0.51188454  0.30178204     0.09300
C607        C  0.74827471  0.50939612  0.23964324    -0.54200
C608        C  0.73566116  0.98520949  0.24266103     0.09900
H609        H  0.71635730  0.55909595  0.18446782     0.14400
H610        H  0.70304231  0.97304470  0.25343851     0.00200
H611        H  0.72729631  0.55213886  0.33057362     0.14700
H612        H  0.76466566  0.50728209  0.23375662     0.14500
C613        C  0.81336629  0.78881833  0.23175343     0.86300
C614        C  0.82774726  0.78719890  0.27797030    -0.53900
C615        C  0.84091394  0.76354535  0.27785669     0.09200
C616        C  0.83864087  0.74309674  0.23074579     0.20200
C617        C  0.82722840  0.78722690  0.18379811    -0.54700
C618        C  0.84071653  0.76384082  0.18333761     0.09300
C619        C  0.80275483  0.75796079  0.23014605    -0.54200
C620        C  0.81592341  0.73410580  0.23146926     0.09900
H621        H  0.82721123  0.80357444  0.30870263     0.14400
H622        H  0.84917273  0.72362898  0.23071863     0.00200
H623        H  0.82606034  0.80312830  0.15227851     0.14700
H624        H  0.78648377  0.75458040  0.22608865     0.14500
N625        N  0.37940375  0.79022790  0.40635055    -0.27500
N626        N  0.36653592  0.77429094  0.43449827    -0.35300
C627        C  0.35135408  0.76441761  0.40449588     0.00900
C628        C  0.35477477  0.77490690  0.35499373     0.06900
C629        C  0.37271090  0.79121700  0.35747205    -0.06200
H630        H  0.33817116  0.75215464  0.41844562     0.07600
H631        H  0.38000215  0.80366428  0.32665016     0.08800
Cu632      Cu  0.36845604  0.77161472  0.51350606     0.44200
Cu633      Cu  0.40388487  0.81187788  0.43899390     0.42000
Cu634      Cu  0.39986545  0.82556779  0.07935951     0.43900
N635        N  0.36765575  0.77866407  0.09183910    -0.34900
N636        N  0.37808095  0.79936150  0.11661155    -0.29100
C637        C  0.37176884  0.79983489  0.16623099    -0.05200
C638        C  0.35675084  0.77820250  0.17258867     0.07000
C639        C  0.35462737  0.76538009  0.12450316     0.00800
H640        H  0.37725353  0.81533653  0.19490687     0.08500
H641        H  0.34349700  0.74889477  0.11286166     0.07500
N642        N  0.42353335  0.84039675  0.03198416    -0.36300
N643        N  0.42547778  0.83363904  0.48260868    -0.28500
C644        C  0.44391548  0.84262016  0.46568223    -0.03700
C645        C  0.45403506  0.85608664  0.50597865     0.04900
C646        C  0.44057626  0.85453090  0.04732661     0.03000
H647        H  0.44976811  0.83869923  0.42723318     0.08100
H648        H  0.44329595  0.86193908  0.08631559     0.06900
N649        N  0.67764989  0.48441445  0.40068224    -0.27500
N650        N  0.68844225  0.50368750  0.42764648    -0.35300
C651        C  0.70253919  0.51647832  0.39682536     0.00900
C652        C  0.70055095  0.50467113  0.34784772     0.06900
C653        C  0.68459921  0.48434458  0.35174427    -0.06200
H654        H  0.71369151  0.53265951  0.40958151     0.07600
H655        H  0.67843711  0.47054833  0.32141970     0.08800
Cu656      Cu  0.68427773  0.50957986  0.50593990     0.44200
Cu657      Cu  0.65423314  0.95965967  0.43402853     0.42000
Cu658      Cu  0.65251385  0.95784415  0.07679330     0.43900
N659        N  0.68335949  0.50664659  0.08536128    -0.34900
N660        N  0.67302840  0.48637931  0.11196583    -0.29100
C661        C  0.67897063  0.48739750  0.16162767    -0.05200
C662        C  0.69360072  0.50964188  0.16620161     0.07000
C663        C  0.69583639  0.52133475  0.11708981     0.00800
H664        H  0.67381534  0.47211717  0.19137029     0.08500
H665        H  0.70715668  0.53738991  0.10415194     0.07500
N666        N  0.63067700  0.93934252  0.02899260    -0.36300
N667        N  0.63104437  0.94059050  0.47801311    -0.28500
C668        C  0.61320494  0.93014289  0.45992886    -0.03700
C669        C  0.60109179  0.92195738  0.50140095     0.04900
C670        C  0.61265702  0.92791285  0.04452952     0.03000
H671        H  0.60895533  0.93002121  0.41970593     0.08100
H672        H  0.60787749  0.92571207  0.08432899     0.06900
C673        C  0.47545858  0.86675390  0.50556443     0.01200
C674        C  0.48229304  0.88632969  0.46613989     0.04000
C675        C  0.50294063  0.89499182  0.46378742    -0.12100
C676        C  0.51665470  0.88505037  0.50168805     0.23300
C677        C  0.50987595  0.86613663  0.04165378    -0.12700
C678        C  0.48943094  0.85647402  0.04314313     0.04700
C679        C  0.53821155  0.89491585  0.50013902     0.27100
C680        C  0.55300130  0.87769819  0.47400400    -0.13300
C681        C  0.57364369  0.88649238  0.47445988     0.05200
C682        C  0.57941413  0.91290001  0.50015014    -0.09300
C683        C  0.56439973  0.93070261  0.02462857     0.06000
C684        C  0.54388535  0.92140959  0.02534388    -0.13700
Br685      Br  0.52881286  0.85345812  0.09424923    -0.05700
Br686      Br  0.46339285  0.90270773  0.41652355    -0.00100
Br687      Br  0.59404136  0.86164878  0.44169340     0.00300
Br688      Br  0.52342002  0.94480694  0.06098762    -0.04100
Br689      Br  0.48138317  0.82749610  0.09479071     0.00400
Br690      Br  0.51263096  0.92052909  0.40869945    -0.03400
Br691      Br  0.54484813  0.84204017  0.43784774    -0.04200
Br692      Br  0.57152936  0.96873323  0.05461195    -0.00300
C693        C  0.75272052  0.56587462  0.24500872     0.01200
C694        C  0.75351739  0.58534659  0.20166326     0.04000
C695        C  0.76305056  0.61322029  0.20566979    -0.12100
C696        C  0.77705104  0.61843040  0.24552015     0.23300
C697        C  0.78017253  0.59608365  0.28308150    -0.12700
C698        C  0.76738093  0.57063792  0.28456087     0.04700
C699        C  0.78925545  0.64650312  0.24545381     0.27100
C700        C  0.80330226  0.65236872  0.20507652    -0.13300
C701        C  0.81214618  0.68095365  0.19996615     0.05200
C702        C  0.80846257  0.70289164  0.23785692    -0.09300
C703        C  0.79665859  0.69544669  0.28176436     0.06000
C704        C  0.78612504  0.66810222  0.28412936    -0.13700
Br705      Br  0.80240618  0.60000440  0.33132382    -0.05700
Br706      Br  0.74964602  0.57096567  0.13213399    -0.00100
Br707      Br  0.82812712  0.69013693  0.13943635     0.00300
Br708      Br  0.76657798  0.66115257  0.33896489    -0.04100
Br709      Br  0.77155083  0.54180475  0.33906477     0.00400
Br710      Br  0.75691056  0.64386245  0.15541830    -0.03400
Br711      Br  0.81013664  0.62130461  0.15624948    -0.04200
Br712      Br  0.79589387  0.72188462  0.34032456    -0.00300
C713        C  0.74382288  0.95432696  0.24195931     0.01200
C714        C  0.74328804  0.93720857  0.19649358     0.04000
C715        C  0.75346053  0.90945759  0.19436382    -0.12100
C716        C  0.76429551  0.89894830  0.23751480     0.23300
C717        C  0.76414362  0.91551398  0.28360834    -0.12700
C718        C  0.75371774  0.94296342  0.28599382     0.04700
C719        C  0.77633145  0.87085943  0.23444094     0.27100
C720        C  0.76747389  0.84369614  0.24982497    -0.13300
C721        C  0.77952153  0.81763792  0.25349646     0.05200
C722        C  0.80009709  0.81749648  0.23460051    -0.09300
C723        C  0.80924372  0.84588854  0.22363743     0.06000
C724        C  0.79726282  0.87206361  0.22235077    -0.13700
Br725      Br  0.77876365  0.90091855  0.34304278    -0.05700
Br726      Br  0.72924236  0.95211836  0.13667752    -0.00100
Br727      Br  0.76882938  0.78673069  0.29818449     0.00300
Br728      Br  0.80955074  0.91020734  0.20534518    -0.04100
Br729      Br  0.75289546  0.96486026  0.34986181     0.00400
Br730      Br  0.75309888  0.88602859  0.13214969    -0.03400
Br731      Br  0.73877715  0.84284385  0.26839627    -0.04200
Br732      Br  0.83863663  0.85087954  0.21730077    -0.00300
C733        C  0.25413515  0.97069052  0.25265538     0.01200
C734        C  0.27365319  0.97077893  0.22787587     0.04000
C735        C  0.28683371  0.94602068  0.23293543    -0.12100
C736        C  0.27984114  0.91961269  0.25656688     0.23300
C737        C  0.25950062  0.91771608  0.27405220    -0.12700
C738        C  0.24641771  0.94258593  0.26999928     0.04700
C739        C  0.29262807  0.89221458  0.25554048     0.27100
C740        C  0.29251274  0.87393275  0.21143161    -0.13300
C741        C  0.30275123  0.84633099  0.21191650     0.05200
C742        C  0.31224113  0.83615588  0.25731958    -0.09300
C743        C  0.31339758  0.85518626  0.30049064     0.06000
C744        C  0.30364852  0.88329889  0.29945273    -0.13700
Br745      Br  0.24940928  0.88036482  0.30202435    -0.05700
Br746      Br  0.28067045  0.99992653  0.17539681    -0.00100
Br747      Br  0.30382980  0.82234233  0.15022494     0.00300
Br748      Br  0.30427795  0.90900152  0.35897439    -0.04100
Br749      Br  0.21737520  0.93570637  0.27962287     0.00400
Br750      Br  0.31435043  0.94760070  0.20548825    -0.03400
Br751      Br  0.27706176  0.88576326  0.15156213    -0.04200
Br752      Br  0.32724731  0.84236632  0.36201662    -0.00300
C753        C  0.29680238  0.72593750  0.25768759     0.01200
C754        C  0.29324841  0.70962754  0.21183325     0.04000
C755        C  0.28406621  0.68141701  0.21453262    -0.12100
C756        C  0.27381159  0.67250392  0.25987055     0.23300
C757        C  0.27278050  0.69234392  0.30192202    -0.12700
C758        C  0.28458359  0.71874439  0.30147172     0.04700
C759        C  0.26353401  0.64291826  0.26222077     0.27100
C760        C  0.24670865  0.63691674  0.23021393    -0.13300
C761        C  0.23925287  0.60755322  0.22591920     0.05200
C762        C  0.24639639  0.58491435  0.25946392    -0.09300
C763        C  0.26155469  0.59212764  0.29620628     0.06000
C764        C  0.27112245  0.62027095  0.29477191    -0.13700
Br765      Br  0.25521970  0.68317408  0.35994889    -0.05700
Br766      Br  0.29476844  0.72844369  0.14459327    -0.00100
Br767      Br  0.22108464  0.59852035  0.17002059     0.00300
Br768      Br  0.29523132  0.62727167  0.33573983    -0.04100
Br769      Br  0.28262455  0.74554015  0.35962064     0.00400
Br770      Br  0.28634737  0.65494195  0.15609596    -0.03400
Br771      Br  0.23392060  0.66900130  0.19203207    -0.04200
Br772      Br  0.26850738  0.56465394  0.35105603    -0.00300
C773        C  0.07811619  0.61779528  0.50009867     0.01200
C774        C  0.06465522  0.60186577  0.46772385     0.04000
C775        C  0.04402402  0.61055671  0.46397384    -0.12100
C776        C  0.03661576  0.63470278  0.49329988     0.23300
C777        C  0.04986571  0.65029116  0.02628923    -0.12700
C778        C  0.07062769  0.64212259  0.02924138     0.04700
C779        C  0.01496678  0.64418714  0.48853298     0.27100
C780        C  0.00981636  0.66776444  0.45496727    -0.13300
C781        C  0.98940446  0.67755227  0.45146010     0.05200
C782        C  0.97393019  0.66330111  0.48094836    -0.09300
C783        C  0.97911651  0.63904994  0.01345266     0.06000
C784        C  0.99961914  0.62980116  0.01767061    -0.13700
Br785      Br  0.03942197  0.68294664  0.06723220    -0.05700
Br786      Br  0.07394745  0.56713421  0.43022015    -0.00100
Br787      Br  0.98326752  0.71176756  0.40863887     0.00300
Br788      Br  0.00686093  0.59763583  0.06389016    -0.04100
Br789      Br  0.08892735  0.66542920  0.07114458     0.00400
Br790      Br  0.02575122  0.58948593  0.41857477    -0.03400
Br791      Br  0.03098865  0.68692668  0.41448315    -0.04200
Br792      Br  0.95813599  0.61745332  0.05077774    -0.00300
N793        N  0.87753439  0.73846902  0.58588990    -0.27500
N794        N  0.86646471  0.75752324  0.55890426    -0.35300
C795        C  0.85233446  0.77000511  0.58969950     0.00900
C796        C  0.85443921  0.75818647  0.63875859     0.06900
C797        C  0.87064541  0.73822403  0.63498280    -0.06200
H798        H  0.84067952  0.78532626  0.57640662     0.07600
H799        H  0.87661801  0.72400317  0.66516568     0.08800
Cu800      Cu  0.86878394  0.76214271  0.47996604     0.44200
Cu801      Cu  0.90055542  0.71354528  0.55116253     0.42000
Cu802      Cu  0.90015928  0.71120340  0.90793410     0.43900
N803        N  0.86666326  0.75660603  0.90129847    -0.34900
N804        N  0.87735394  0.73698152  0.87436033    -0.29100
C805        C  0.87034152  0.73674199  0.82558274    -0.05200
C806        C  0.85452428  0.75733708  0.82197982     0.07000
C807        C  0.85270553  0.76943301  0.87077415     0.00800
H808        H  0.87605554  0.72224821  0.79548090     0.08500
H809        H  0.84135700  0.78526538  0.88415516     0.07500
N810        N  0.92288907  0.69304125  0.95422427    -0.36300
N811        N  0.92322652  0.69471127  0.50514090    -0.28500
C812        C  0.94113796  0.68381948  0.52206482    -0.03700
C813        C  0.95259844  0.67458248  0.98007804     0.04900
C814        C  0.94048571  0.68059448  0.93769158     0.03000
H815        H  0.94577546  0.68360740  0.56200977     0.08100
H816        H  0.94443843  0.67714855  0.89762976     0.06900
N817        N  0.17875392  0.55279579  0.90457095    -0.27500
N818        N  0.18947057  0.53320879  0.93131324    -0.35300
C819        C  0.20334871  0.52018506  0.90043630     0.00900
C820        C  0.20138829  0.53211515  0.85146763     0.06900
C821        C  0.18561174  0.55282174  0.85546314    -0.06200
H822        H  0.21447247  0.00395195  0.91338629     0.07600
H823        H  0.17960187  0.56691806  0.82516625     0.08800
Cu824      Cu  0.18619559  0.52738605  0.00957515     0.44200
Cu825      Cu  0.15548809  0.57750470  0.93918708     0.42000
Cu826      Cu  0.15061554  0.57100330  0.58246492     0.43900
N827        N  0.18685820  0.53061291  0.58857052    -0.34900
N828        N  0.17458220  0.54761852  0.61651412    -0.29100
C829        C  0.18121353  0.54741444  0.66573723    -0.05200
C830        C  0.19841938  0.52922977  0.66829668     0.07000
C831        C  0.20140871  0.51903555  0.61865347     0.00800
H832        H  0.17444100  0.56018781  0.69676878     0.08500
H833        H  0.21402745  0.00564220  0.60447575     0.07500
N834        N  0.12891117  0.59001699  0.53373547    -0.36300
N835        N  0.13100823  0.59314472  0.98318159    -0.28500
C836        C  0.11367501  0.60478695  0.96395141    -0.03700
C837        C  0.09988171  0.60879606  0.00394018     0.04900
C838        C  0.11008057  0.59931630  0.54762731     0.03000
H839        H  0.11096589  0.60870347  0.92340638     0.08100
H840        H  0.10394651  0.59805354  0.58637767     0.06900
C841        C  0.31330112  0.75036368  0.76014609     0.86300
C842        C  0.32945881  0.74959536  0.71688992    -0.53900
C843        C  0.34306188  0.77265640  0.71716919     0.09200
C844        C  0.34060340  0.79325052  0.76406820     0.20200
C845        C  0.32670175  0.74941705  0.80846274    -0.54700
C846        C  0.34088668  0.77182101  0.81087704     0.09300
C847        C  0.30422528  0.78194432  0.75877701    -0.54200
C848        C  0.31837863  0.80432336  0.76109660     0.09900
H849        H  0.33082169  0.73155799  0.68946675     0.14400
H850        H  0.35192454  0.81169952  0.76557815     0.00200
H851        H  0.32536544  0.73209844  0.83771364     0.14700
H852        H  0.28793709  0.78627257  0.75557296     0.14500
C853        C  0.24058082  0.99888541  0.75561782     0.86300
C854        C  0.22757018  0.50139808  0.80515442    -0.53900
C855        C  0.21430856  0.52508586  0.80601175     0.09200
C856        C  0.21577489  0.54499933  0.75772144     0.20200
C857        C  0.22545014  0.49990029  0.71126587    -0.54700
C858        C  0.21250992  0.52378632  0.71172408     0.09300
C859        C  0.25147555  0.52943694  0.75433024    -0.54200
C860        C  0.23862744  0.55364081  0.75535191     0.09900
H861        H  0.22925588  0.98615449  0.83744814     0.14400
H862        H  0.20531791  0.56453886  0.75852645     0.00200
H863        H  0.22528635  0.98297762  0.68136609     0.14700
H864        H  0.26790572  0.53201856  0.75627854     0.14500
C865        C  0.73751105  0.53953254  0.74787181     0.85700
C866        C  0.71986451  0.54021154  0.70896067    -0.53900
C867        C  0.70776751  0.51544162  0.70914257     0.09200
C868        C  0.71307360  0.99303550  0.75204904     0.20200
C869        C  0.72585183  0.53622727  0.79934226    -0.54700
C870        C  0.71310037  0.51188453  0.80178212     0.09300
C871        C  0.74827471  0.50939612  0.73964335    -0.54200
C872        C  0.73566114  0.98520945  0.74266102     0.09900
H873        H  0.71635731  0.55909599  0.68446792     0.14400
H874        H  0.70304229  0.97304467  0.75343861     0.00200
H875        H  0.72729626  0.55213888  0.83057372     0.14700
H876        H  0.76466561  0.50728208  0.73375677     0.14500
C877        C  0.81336631  0.78881831  0.73175351     0.86300
C878        C  0.82774729  0.78719894  0.77797028    -0.53900
C879        C  0.84091396  0.76354540  0.77785673     0.09200
C880        C  0.83864089  0.74309675  0.73074585     0.20200
C881        C  0.82722839  0.78722686  0.68379809    -0.54700
C882        C  0.84071653  0.76384078  0.68333764     0.09300
C883        C  0.80275484  0.75796076  0.73014629    -0.54200
C884        C  0.81592344  0.73410578  0.73146940     0.09900
H885        H  0.82721122  0.80357455  0.80870280     0.14400
H886        H  0.84917276  0.72362899  0.73071870     0.00200
H887        H  0.82606029  0.80312821  0.65227849     0.14700
H888        H  0.78648385  0.75458037  0.72608901     0.14500
N889        N  0.37940378  0.79022789  0.90635060    -0.27500
N890        N  0.36653591  0.77429100  0.93449829    -0.35300
C891        C  0.35135407  0.76441769  0.90449591     0.00900
C892        C  0.35477477  0.77490694  0.85499374     0.06900
C893        C  0.37271095  0.79121699  0.85747206    -0.06200
H894        H  0.33817116  0.75215471  0.91844568     0.07600
H895        H  0.38000224  0.80366418  0.82665019     0.08800
Cu896      Cu  0.36845605  0.77161464  0.01350600     0.44200
Cu897      Cu  0.40388498  0.81187774  0.93899395     0.42000
Cu898      Cu  0.39986544  0.82556788  0.57935963     0.43900
N899        N  0.36765574  0.77866416  0.59183916    -0.34900
N900        N  0.37808093  0.79936158  0.61661161    -0.29100
C901        C  0.37176881  0.79983500  0.66623105    -0.05200
C902        C  0.35675083  0.77820259  0.67258871     0.07000
C903        C  0.35462736  0.76538015  0.62450321     0.00800
H904        H  0.37725350  0.81533666  0.69490689     0.08500
H905        H  0.34349705  0.74889485  0.61286175     0.07500
N906        N  0.42353329  0.84039683  0.53198418    -0.36300
N907        N  0.42547786  0.83363895  0.98260865    -0.28500
C908        C  0.44391556  0.84262006  0.96568221    -0.03700
C909        C  0.45403511  0.85608656  0.00597869     0.04900
C910        C  0.44057623  0.85453102  0.54732667     0.03000
H911        H  0.44976818  0.83869915  0.92723323     0.08100
H912        H  0.44329592  0.86193914  0.58631544     0.06900
N913        N  0.67764987  0.48441450  0.90068224    -0.27500
N914        N  0.68844222  0.50368758  0.92764655    -0.35300
C915        C  0.70253916  0.51647835  0.89682543     0.00900
C916        C  0.70055094  0.50467115  0.84784777     0.06900
C917        C  0.68459922  0.48434462  0.85174438    -0.06200
H918        H  0.71369152  0.53265960  0.90958164     0.07600
H919        H  0.67843710  0.47054828  0.82141968     0.08800
Cu920      Cu  0.68427760  0.50957998  0.00594001     0.44200
Cu921      Cu  0.65423327  0.95965956  0.93402865     0.42000
Cu922      Cu  0.65251381  0.95784420  0.57679336     0.43900
N923        N  0.68335961  0.50664653  0.58536123    -0.34900
N924        N  0.67302848  0.48637930  0.61196582    -0.29100
C925        C  0.67897063  0.48739761  0.66162771    -0.05200
C926        C  0.69360071  0.50964200  0.66620166     0.07000
C927        C  0.69583642  0.52133478  0.61708983     0.00800
H928        H  0.67381531  0.47211733  0.69137039     0.08500
H929        H  0.70715674  0.53739001  0.60415195     0.07500
N930        N  0.63067695  0.93934262  0.52899262    -0.36300
N931        N  0.63104443  0.94059044  0.97801300    -0.28500
C932        C  0.61320502  0.93014285  0.95992883    -0.03700
C933        C  0.60109184  0.92195736  0.00140080     0.04900
C934        C  0.61265697  0.92791292  0.54452964     0.03000
H935        H  0.60895541  0.93002115  0.91970558     0.08100
H936        H  0.60787746  0.92571214  0.58432905     0.06900
C937        C  0.47545860  0.86675392  0.00556450     0.01200
C938        C  0.48229305  0.88632970  0.96613997     0.04000
C939        C  0.50294065  0.89499176  0.96378735    -0.12100
C940        C  0.51665472  0.88505036  0.00168799     0.23300
C941        C  0.50987593  0.86613661  0.54165378    -0.12700
C942        C  0.48943093  0.85647401  0.54314310     0.04700
C943        C  0.53821158  0.89491586  0.00013893     0.27100
C944        C  0.55300135  0.87769819  0.97400394    -0.13300
C945        C  0.57364375  0.88649236  0.97445977     0.05200
C946        C  0.57941418  0.91290001  0.00014998    -0.09300
C947        C  0.56439969  0.93070259  0.52462872     0.06000
C948        C  0.54388532  0.92140955  0.52534403    -0.13700
Br949      Br  0.52881284  0.85345822  0.59424933    -0.05700
Br950      Br  0.46339283  0.90270764  0.91652362    -0.00100
Br951      Br  0.59404148  0.86164866  0.94169354     0.00300
Br952      Br  0.52341999  0.94480685  0.56098779    -0.04100
Br953      Br  0.48138315  0.82749620  0.59479081     0.00400
Br954      Br  0.51263095  0.92052896  0.90869921    -0.03400
Br955      Br  0.54484813  0.84204019  0.93784779    -0.04200
Br956      Br  0.57152935  0.96873316  0.55461212    -0.00300
C957        C  0.75272052  0.56587459  0.74500887     0.01200
C958        C  0.75351739  0.58534658  0.70166345     0.04000
C959        C  0.76305058  0.61322026  0.70567006    -0.12100
C960        C  0.77705105  0.61843036  0.74552044     0.23300
C961        C  0.78017251  0.59608360  0.78308175    -0.12700
C962        C  0.76738092  0.57063787  0.78456101     0.04700
C963        C  0.78925554  0.64650301  0.74545416     0.27100
C964        C  0.80330234  0.65236859  0.70507682    -0.13300
C965        C  0.81214620  0.68095356  0.69996633     0.05200
C966        C  0.80846261  0.70289159  0.73785707    -0.09300
C967        C  0.79665871  0.69544662  0.78176463     0.06000
C968        C  0.78612517  0.66810214  0.78412973    -0.13700
Br969      Br  0.80240618  0.60000427  0.83132400    -0.05700
Br970      Br  0.74964616  0.57096557  0.63213416    -0.00100
Br971      Br  0.82812711  0.69013681  0.63943646     0.00300
Br972      Br  0.76657798  0.66115265  0.83896503    -0.04100
Br973      Br  0.77155080  0.54180477  0.83906496     0.00400
Br974      Br  0.75691070  0.64386236  0.65541840    -0.03400
Br975      Br  0.81013663  0.62130450  0.65624965    -0.04200
Br976      Br  0.79589400  0.72188467  0.84032469    -0.00300
C977        C  0.74382287  0.95432692  0.74195936     0.01200
C978        C  0.74328801  0.93720849  0.69649367     0.04000
C979        C  0.75346050  0.90945751  0.69436392    -0.12100
C980        C  0.76429551  0.89894826  0.73751489     0.23300
C981        C  0.76414363  0.91551399  0.78360841    -0.12700
C982        C  0.75371774  0.94296343  0.78599388     0.04700
C983        C  0.77633146  0.87085938  0.73444100     0.27100
C984        C  0.76747393  0.84369610  0.74982509    -0.13300
C985        C  0.77952155  0.81763787  0.75349664     0.05200
C986        C  0.80009709  0.81749643  0.73460055    -0.09300
C987        C  0.80924371  0.84588847  0.72363735     0.06000
C988        C  0.79726281  0.87206354  0.72235070    -0.13700
Br989      Br  0.77876365  0.90091864  0.84304289    -0.05700
Br990      Br  0.72924234  0.95211823  0.63667761    -0.00100
Br991      Br  0.76882937  0.78673062  0.79818460     0.00300
Br992      Br  0.80955062  0.91020724  0.70534491    -0.04100
Br993      Br  0.75289545  0.96486034  0.84986187     0.00400
Br994      Br  0.75309887  0.88602847  0.63214982    -0.03400
Br995      Br  0.73877723  0.84284392  0.76839645    -0.04200
Br996      Br  0.83863663  0.85087944  0.71730087    -0.00300
C997        C  0.25413514  0.97069052  0.75265553     0.01200
C998        C  0.27365317  0.97077893  0.72787604     0.04000
C999        C  0.28683370  0.94602070  0.73293558    -0.12100
C1000       C  0.27984114  0.91961271  0.75656705     0.23300
C1001       C  0.25950061  0.91771610  0.77405229    -0.12700
C1002       C  0.24641769  0.94258594  0.76999938     0.04700
C1003       C  0.29262809  0.89221461  0.75554061     0.27100
C1004       C  0.29251275  0.87393281  0.71143172    -0.13300
C1005       C  0.30275121  0.84633105  0.71191659     0.05200
C1006       C  0.31224110  0.83615589  0.75731966    -0.09300
C1007       C  0.31339755  0.85518622  0.80049076     0.06000
C1008       C  0.30364853  0.88329887  0.79945286    -0.13700
Br1009     Br  0.24940926  0.88036487  0.80202450    -0.05700
Br1010     Br  0.28067045  0.99992663  0.67539723    -0.00100
Br1011     Br  0.30382979  0.82234242  0.65022504     0.00300
Br1012     Br  0.30427794  0.90900142  0.85897457    -0.04100
Br1013     Br  0.21737518  0.93570644  0.77962300     0.00400
Br1014     Br  0.31435041  0.94760078  0.70548839    -0.03400
Br1015     Br  0.27706175  0.88576335  0.65156226    -0.04200
Br1016     Br  0.32724729  0.84236620  0.86201673    -0.00300
C1017       C  0.29680234  0.72593754  0.75768760     0.01200
C1018       C  0.29324840  0.70962758  0.71183328     0.04000
C1019       C  0.28406629  0.68141700  0.71453259    -0.12100
C1020       C  0.27381164  0.67250386  0.75987045     0.23300
C1021       C  0.27278053  0.69234383  0.80192198    -0.12700
C1022       C  0.28458360  0.71874433  0.80147177     0.04700
C1023       C  0.26353406  0.64291817  0.76222060     0.27100
C1024       C  0.24670872  0.63691667  0.73021369    -0.13300
C1025       C  0.23925287  0.60755317  0.72591909     0.05200
C1026       C  0.24639638  0.58491432  0.75946390    -0.09300
C1027       C  0.26155467  0.59212758  0.79620631     0.06000
C1028       C  0.27112246  0.62027089  0.79477188    -0.13700
Br1029     Br  0.25521968  0.68317395  0.85994871    -0.05700
Br1030     Br  0.29476841  0.72844378  0.64459335    -0.00100
Br1031     Br  0.22108466  0.59852026  0.67002041     0.00300
Br1032     Br  0.29523129  0.62727173  0.83573993    -0.04100
Br1033     Br  0.28262454  0.74554002  0.85962077     0.00400
Br1034     Br  0.28634751  0.65494206  0.65609579    -0.03400
Br1035     Br  0.23392074  0.66900132  0.69203182    -0.04200
Br1036     Br  0.26850736  0.56465384  0.85105610    -0.00300
C1037       C  0.07811619  0.61779525  0.00009858     0.01200
C1038       C  0.06465522  0.60186584  0.96772364     0.04000
C1039       C  0.04402403  0.61055683  0.96397363    -0.12100
C1040       C  0.03661578  0.63470291  0.99329974     0.23300
C1041       C  0.04986568  0.65029106  0.52628934    -0.12700
C1042       C  0.07062768  0.64212263  0.52924145     0.04700
C1043       C  0.01496680  0.64418725  0.98853292     0.27100
C1044       C  0.00981637  0.66776456  0.95496724    -0.13300
C1045       C  0.98940446  0.67755232  0.95146009     0.05200
C1046       C  0.97393019  0.66330107  0.98094824    -0.09300
C1047       C  0.97911650  0.63904999  0.51345283     0.06000
C1048       C  0.99961911  0.62980109  0.51767070    -0.13700
Br1049     Br  0.03942193  0.68294658  0.56723204    -0.05700
Br1050     Br  0.07394744  0.56713431  0.93021989    -0.00100
Br1051     Br  0.98326750  0.71176766  0.90863901     0.00300
Br1052     Br  0.00686090  0.59763573  0.56389026    -0.04100
Br1053     Br  0.08892731  0.66542944  0.57114459     0.00400
Br1054     Br  0.02575121  0.58948605  0.91857454    -0.03400
Br1055     Br  0.03098865  0.68692698  0.91448328    -0.04200
Br1056     Br  0.95813597  0.61745341  0.55077788    -0.00300
loop_ 
_geom_bond_atom_site_label_1 
_geom_bond_atom_site_label_2 
_geom_bond_distance 
_geom_bond_site_symmetry_2 
_ccdc_geom_bond_type 
N1            N2   1.319       .  A
N1            C5   1.349       .  A
N1           Cu9   2.075       .  S
N2            C3   1.340       .  A
N2           Cu8   2.063   1_554  S
C3            C4   1.385       .  A
C3            H6   1.081       .  S
C4            C5   1.388       .  A
C4           C90   1.482       .  S
C5            H7   1.082       .  S
Cu8         N275   2.063       .  S
Cu9          N19   2.077       .  S
Cu10         N12   2.077       .  S
Cu10         N18   2.079       .  S
N11          N12   1.321       .  A
N11          C15   1.339       .  A
N11        Cu272   2.063       .  S
N12          C13   1.349       .  A
C13          C14   1.387       .  A
C13          H16   1.081       .  S
C14          C15   1.383       .  A
C14          C87   1.480       .  S
C15          H17   1.081       .  S
N18         N283   1.324       .  A
N18          C22   1.346       .  A
N19         N282   1.324   1_554  A
N19          C20   1.343       .  A
C20         C285   1.383   1_554  A
C20          H23   1.082       .  S
C21          C22   1.385       .  A
C21         C284   1.383       .  A
C21         C254   1.482       .  S
C22          H24   1.081       .  S
N25          N26   1.319       .  A
N25          C29   1.348       .  A
N25         Cu33   2.080       .  S
N26          C27   1.341       .  A
N26         Cu32   2.057       .  S
C27          C28   1.383       .  A
C27         H558   1.081       .  S
C28          C29   1.389       .  A
C28          C63   1.481       .  S
C29          H31   1.082       .  S
H30         C555   1.081       .  S
Cu32        N299   2.057       .  S
Cu33         N43   2.082       .  S
Cu34         N36   2.082       .  S
Cu34         N42   2.085       .  S
N35          N36   1.320       .  A
N35          C39   1.337       .  A
N35        Cu296   2.057       .  S
N36          C37   1.352       .  A
C37          C38   1.389       .  A
C37          H40   1.081       .  S
C38          C39   1.381       .  A
C38          C66   1.479       .  S
C39         H569   1.082       .  S
H41         C567   1.082       .  S
N42         N307   1.325   1_554  A
N42          C46   1.346       .  A
N43         N306   1.325       .  A
N43          C44   1.344       .  A
C44          C45   1.383       .  A
C44          H47   1.082       .  S
C45         C310   1.384       .  A
C45         C245   1.482       .  S
C46         C309   1.384       .  A
C46          H48   1.082       .  S
C49          C50   1.537       .  S
C49          C55   1.532       .  S
C49          C53   1.534       .  S
C49         C225   1.537       .  S
C50          H57   1.081       .  S
C50          C51   1.362       .  D
C51         C110   1.479       .  S
C51          C52   1.536       .  S
C52          C56   1.536       .  S
C52          C54   1.545       .  S
C52          H58   1.109       .  S
C53          H59   1.086       .  S
C53          C54   1.367       .  D
C54         C100   1.472       .  S
C55          H60   1.085       .  S
C55          C56   1.365       .  D
C56         C214   1.482       .  S
C61         C590   1.541       .  S
C61         C595   1.541       .  S
C61         C593   1.523       .  S
C61         C205   1.542       .  S
C62         C589   1.541   1_545  S
C62         H597   1.085   1_545  S
C62          C63   1.368       .  D
C63          C64   1.538       .  S
C64          C68   1.544       .  S
C64          C66   1.543       .  S
C64          H70   1.109       .  S
C65         C589   1.523       .  S
C65         H599   1.086       .  S
C65          C66   1.362   1_565  D
C67         C589   1.541   1_545  S
C67          H72   1.082       .  S
C67          C68   1.369       .  D
C68         C234   1.492       .  S
H69         C590   1.085       .  S
H71         C593   1.086       .  S
C73          C74   1.538       .  S
C73          C79   1.535       .  S
C73          C77   1.541       .  S
C73         C165   1.543       .  S
C74          H81   1.080       .  S
C74          C75   1.361       .  D
C75         C134   1.477       .  S
C75         C604   1.536   1_545  S
C76          C80   1.535       .  S
C76         C603   1.536       .  S
C76         C606   1.544       .  S
C76          H82   1.109       .  S
C77          H83   1.085       .  S
C77          C78   1.372       .  D
C78         C124   1.481       .  S
C78         C604   1.544   1_545  S
C79          H84   1.085       .  S
C79         C608   1.362   1_545  D
C80         C185   1.480       .  S
C80         C607   1.362       .  D
C85          C86   1.530       .  S
C85          C91   1.545       .  S
C85          C89   1.537       .  S
C85         C194   1.549       .  S
C86          H93   1.085       .  S
C86          C87   1.363       .  D
C87          C88   1.537       .  S
C88          C92   1.538       .  S
C88          C90   1.544       .  S
C88          H94   1.109       .  S
C89          H95   1.085       .  S
C89          C90   1.367       .  D
C91          H96   1.080       .  S
C91          C92   1.370       .  D
C92         C174   1.487       .  S
N97          N98   1.319       .  A
N97         C101   1.345       .  A
N97        Cu105   2.059       .  S
N98          C99   1.341       .  A
N98        Cu104   2.058       .  S
C99         C100   1.383       .  A
C99         H102   1.082       .  S
C100        C101   1.383       .  A
C101        H103   1.081       .  S
Cu104       N371   2.059       .  S
Cu105       N115   2.061       .  S
Cu106       N108   2.077       .  S
Cu106       N114   2.078       .  S
N107        N108   1.321       .  A
N107        C111   1.336       .  A
N107       Cu368   2.059       .  S
N108        C109   1.350       .  A
C109        C110   1.387       .  A
C109        H112   1.082       .  S
C110        C111   1.383       .  A
C111        H113   1.081       .  S
N114        N379   1.323   1_554  A
N114        C118   1.344       .  A
N115        N378   1.323       .  A
N115        C116   1.341       .  A
C116        C117   1.381       .  A
C116        H119   1.081       .  S
C117        C382   1.385       .  A
C117        C145   1.479       .  S
C118        C381   1.385       .  A
C118        H120   1.082       .  S
N121        N122   1.319   1_565  A
N121        C125   1.346       .  A
N121       Cu657   2.073       .  S
N122        C123   1.343       .  A
N122       Cu128   2.066       .  S
C123        C124   1.385       .  A
C123        H126   1.082       .  S
C124        C125   1.387   1_545  A
C125        H127   1.082       .  S
Cu128       N395   2.066       .  S
Cu129       N139   2.074       .  S
Cu129       N649   2.073       .  S
Cu130       N138   2.071       .  S
Cu130       N660   2.070       .  S
N131        N132   1.321   1_545  A
N131        C135   1.337       .  A
N131       Cu392   2.066       .  S
N132        C133   1.349       .  A
N132       Cu658   2.070       .  S
C133        C134   1.386   1_565  A
C133        H136   1.082       .  S
C134        C135   1.383       .  A
C135        H137   1.082       .  S
N138        N403   1.324   1_554  A
N138        C142   1.343       .  A
N139        N402   1.324       .  A
N139        C140   1.344       .  A
C140        C141   1.381       .  A
C140        H143   1.082       .  S
C141        C406   1.381       .  A
C141        C154   1.474       .  S
C142        C405   1.381       .  A
C142        H144   1.082       .  S
C145        C146   1.415       .  A
C145        C414   1.415       .  A
C146        C147   1.405       .  A
C146       Br158   1.932       .  S
C147        C148   1.406       .  A
C147       Br162   1.931       .  S
C148        C413   1.406       .  A
C148        C151   1.477       .  S
C149        C150   1.405       .  A
C149        C412   1.406       .  A
C149       Br157   1.932       .  S
C150        C409   1.415       .  A
C150       Br161   1.932       .  S
C151        C152   1.408       .  A
C151        C420   1.406       .  A
C152        C153   1.406       .  A
C152       Br163   1.930       .  S
C153        C154   1.411       .  A
C153       Br159   1.930       .  S
C154        C419   1.412       .  A
C155        C156   1.404       .  A
C155        C418   1.412       .  A
C155       Br164   1.931       .  S
C156        C415   1.406       .  A
C156       Br160   1.931       .  S
C165        C166   1.421       .  A
C165        C170   1.425       .  A
C166        C167   1.398       .  A
C166       Br178   1.936       .  S
C167        C168   1.405       .  A
C167       Br182   1.932       .  S
C168        C169   1.409       .  A
C168        C171   1.488       .  S
C169        C170   1.413       .  A
C169       Br177   1.932       .  S
C170       Br181   1.931       .  S
C171        C172   1.413       .  A
C171        C176   1.409       .  A
C172        C173   1.409       .  A
C172       Br183   1.934       .  S
C173        C174   1.411       .  A
C173       Br179   1.925       .  S
C174        C175   1.411       .  A
C175        C176   1.405       .  A
C175       Br184   1.929       .  S
C176       Br180   1.931       .  S
C185        C186   1.409       .  A
C185        C190   1.410       .  A
C186        C187   1.408       .  A
C186       Br198   1.925       .  S
C187        C188   1.408       .  A
C187       Br202   1.928       .  S
C188        C189   1.409       .  A
C188        C191   1.484       .  S
C189        C190   1.405       .  A
C189       Br197   1.931       .  S
C190       Br201   1.928       .  S
C191        C192   1.402       .  A
C191        C196   1.403       .  A
C192        C193   1.409       .  A
C192       Br203   1.934       .  S
C193        C194   1.429       .  A
C193       Br199   1.930       .  S
C194        C195   1.431       .  A
C195        C196   1.408       .  A
C195       Br204   1.940       .  S
C196       Br200   1.934       .  S
C205        C206   1.425       .  A
C205        C210   1.425       .  A
C206        C207   1.408       .  A
C206       Br218   1.935       .  S
C207        C208   1.404       .  A
C207       Br222   1.932       .  S
C208        C209   1.405       .  A
C208        C211   1.483       .  S
C209        C210   1.406       .  A
C209       Br217   1.934       .  S
C210       Br221   1.938       .  S
C211        C212   1.409       .  A
C211        C216   1.408       .  A
C212        C213   1.403       .  A
C212       Br223   1.930       .  S
C213        C214   1.409       .  A
C213       Br219   1.931       .  S
C214        C215   1.412       .  A
C215        C216   1.409       .  A
C215       Br224   1.926       .  S
C216       Br220   1.929       .  S
C225        C226   1.418       .  A
C225        C230   1.421       .  A
C226        C227   1.399       .  A
C226       Br238   1.937       .  S
C227        C228   1.407       .  A
C227       Br242   1.932       .  S
C228        C229   1.410       .  A
C228        C231   1.485       .  S
C229        C230   1.411       .  A
C229       Br237   1.931       .  S
C230       Br241   1.934       .  S
C231        C232   1.409       .  A
C231        C236   1.408       .  A
C232        C233   1.406       .  A
C232       Br243   1.933       .  S
C233        C234   1.414       .  A
C233       Br239   1.924       .  S
C234        C235   1.417       .  A
C235        C236   1.406       .  A
C235       Br244   1.933       .  S
C236       Br240   1.933       .  S
C245        C246   1.415       .  A
C245        C514   1.412       .  A
C246        C247   1.407       .  A
C246       Br258   1.931       .  S
C247        C248   1.407       .  A
C247       Br262   1.931       .  S
C248        C513   1.408       .  A
C248        C251   1.483       .  S
C249        C250   1.407       .  A
C249        C512   1.408   1_554  A
C249       Br257   1.931       .  S
C250        C509   1.412       .  A
C250       Br261   1.930       .  S
C251        C252   1.407       .  A
C251        C520   1.407   1_455  A
C252        C253   1.407   1_455  A
C252       Br263   1.932       .  S
C253        C254   1.415       .  A
C253       Br259   1.931       .  S
C254        C519   1.414       .  A
C255        C256   1.407       .  A
C255        C518   1.414   1_554  A
C255       Br264   1.932       .  S
C256        C515   1.407   1_654  A
C256       Br260   1.930   1_655  S
N265        N266   1.319       .  A
N265        C269   1.349       .  A
N265       Cu273   2.075       .  S
N266        C267   1.340       .  A
N266       Cu272   2.063       .  S
C267        C268   1.385       .  A
C267        H270   1.081       .  S
C268        C269   1.388       .  A
C268        C354   1.482       .  S
C269        H271   1.082       .  S
Cu273       N283   2.077       .  S
Cu274       N276   2.077       .  S
Cu274       N282   2.079       .  S
N275        N276   1.321       .  A
N275        C279   1.339       .  A
N276        C277   1.349       .  A
C277        C278   1.387       .  A
C277        H280   1.081       .  S
C278        C279   1.383       .  A
C278        C351   1.480       .  S
C279        H281   1.081       .  S
N282        C286   1.346       .  A
N283        C284   1.343       .  A
C284        H287   1.082       .  S
C285        C286   1.385       .  A
C285        C518   1.482       .  S
C286        H288   1.081       .  S
N289        N290   1.319       .  A
N289        C293   1.348       .  A
N289       Cu297   2.080       .  S
N290        C291   1.341       .  A
N290       Cu296   2.057   1_556  S
C291        C292   1.383       .  A
C291        H822   1.081       .  S
C292        C293   1.389       .  A
C292        C327   1.481       .  S
C293        H295   1.082       .  S
H294        C819   1.081       .  S
Cu297       N307   2.082       .  S
Cu298       N300   2.082       .  S
Cu298       N306   2.085       .  S
N299        N300   1.320       .  A
N299        C303   1.337       .  A
N300        C301   1.352       .  A
C301        C302   1.389       .  A
C301        H304   1.081       .  S
C302        C303   1.381       .  A
C302        C330   1.479       .  S
C303        H833   1.082       .  S
H305        C831   1.082       .  S
N306        C310   1.346       .  A
N307        C308   1.344       .  A
C308        C309   1.383   1_556  A
C308        H311   1.082       .  S
C309        C509   1.482       .  S
C310        H312   1.082       .  S
C313        C314   1.537       .  S
C313        C319   1.532       .  S
C313        C317   1.534       .  S
C313        C489   1.537       .  S
C314        H321   1.081       .  S
C314        C315   1.362       .  D
C315        C374   1.479       .  S
C315        C316   1.536       .  S
C316        C320   1.536       .  S
C316        C318   1.545       .  S
C316        H322   1.109       .  S
C317        H323   1.086       .  S
C317        C318   1.367       .  D
C318        C364   1.472       .  S
C319        H324   1.085       .  S
C319        C320   1.365       .  D
C320        C478   1.482       .  S
C325        C854   1.541       .  S
C325        C859   1.541       .  S
C325        C857   1.523       .  S
C325        C469   1.542       .  S
C326        C853   1.541   1_545  S
C326        H861   1.085   1_545  S
C326        C327   1.368       .  D
C327        C328   1.538       .  S
C328        C332   1.544       .  S
C328        C330   1.543       .  S
C328        H334   1.109       .  S
C329        C853   1.523       .  S
C329        H863   1.086       .  S
C329        C330   1.362   1_565  D
C331        C853   1.541   1_545  S
C331        H336   1.082       .  S
C331        C332   1.369       .  D
C332        C498   1.492       .  S
H333        C854   1.085       .  S
H335        C857   1.086       .  S
C337        C338   1.538       .  S
C337        C343   1.535       .  S
C337        C341   1.541       .  S
C337        C429   1.543       .  S
C338        H345   1.080       .  S
C338        C339   1.361       .  D
C339        C398   1.477       .  S
C339        C868   1.536   1_545  S
C340        C867   1.536       .  S
C340        C344   1.535       .  S
C340        C870   1.544       .  S
C340        H346   1.109       .  S
C341        H347   1.085       .  S
C341        C342   1.372       .  D
C342        C388   1.481       .  S
C342        C868   1.544   1_545  S
C343        H348   1.085       .  S
C343        C872   1.362   1_545  D
C344        C449   1.480       .  S
C344        C871   1.362       .  D
C349        C350   1.530       .  S
C349        C355   1.545       .  S
C349        C353   1.537       .  S
C349        C458   1.549       .  S
C350        H357   1.085       .  S
C350        C351   1.363       .  D
C351        C352   1.537       .  S
C352        C356   1.538       .  S
C352        C354   1.544       .  S
C352        H358   1.109       .  S
C353        H359   1.085       .  S
C353        C354   1.367       .  D
C355        H360   1.080       .  S
C355        C356   1.370       .  D
C356        C438   1.487       .  S
N361        N362   1.319       .  A
N361        C365   1.345       .  A
N361       Cu369   2.059       .  S
N362        C363   1.341       .  A
N362       Cu368   2.058   1_556  S
C363        C364   1.383       .  A
C363        H366   1.082       .  S
C364        C365   1.383       .  A
C365        H367   1.081       .  S
Cu369       N379   2.061       .  S
Cu370       N372   2.077       .  S
Cu370       N378   2.078       .  S
N371        N372   1.321       .  A
N371        C375   1.336       .  A
N372        C373   1.350       .  A
C373        C374   1.387       .  A
C373        H376   1.082       .  S
C374        C375   1.383       .  A
C375        H377   1.081       .  S
N378        C382   1.344       .  A
N379        C380   1.341       .  A
C380        C381   1.381   1_556  A
C380        H383   1.081       .  S
C381        C409   1.479       .  S
C382        H384   1.082       .  S
N385        N386   1.319   1_565  A
N385        C389   1.346       .  A
N385       Cu921   2.073       .  S
N386        C387   1.343       .  A
N386       Cu392   2.066   1_556  S
C387        C388   1.385       .  A
C387        H390   1.082       .  S
C388        C389   1.387   1_545  A
C389        H391   1.082       .  S
Cu393       N913   2.073       .  S
Cu393       N403   2.074       .  S
Cu394       N924   2.070       .  S
Cu394       N402   2.071       .  S
N395        N396   1.321   1_545  A
N395        C399   1.337       .  A
N396        C397   1.349       .  A
N396       Cu922   2.070       .  S
C397        C398   1.386   1_565  A
C397        H400   1.082       .  S
C398        C399   1.383       .  A
C399        H401   1.082       .  S
N402        C406   1.343       .  A
N403        C404   1.344       .  A
C404        C405   1.381   1_556  A
C404        H407   1.082       .  S
C405        C418   1.474       .  S
C406        H408   1.082       .  S
C409        C410   1.415   1_554  A
C410        C411   1.405       .  A
C410       Br422   1.932       .  S
C411        C412   1.406   1_556  A
C411       Br426   1.931       .  S
C412        C415   1.477       .  S
C413        C414   1.405       .  A
C413       Br421   1.932       .  S
C414       Br425   1.932       .  S
C415        C416   1.408   1_554  A
C416        C417   1.406       .  A
C416       Br427   1.930       .  S
C417        C418   1.411   1_556  A
C417       Br423   1.930       .  S
C419        C420   1.404       .  A
C419       Br428   1.931       .  S
C420       Br424   1.931       .  S
C429        C430   1.421       .  A
C429        C434   1.425       .  A
C430        C431   1.398       .  A
C430       Br442   1.936       .  S
C431        C432   1.405       .  A
C431       Br446   1.932       .  S
C432        C433   1.409       .  A
C432        C435   1.488       .  S
C433        C434   1.413       .  A
C433       Br441   1.932       .  S
C434       Br445   1.931       .  S
C435        C436   1.413       .  A
C435        C440   1.409       .  A
C436        C437   1.409       .  A
C436       Br447   1.934       .  S
C437        C438   1.411       .  A
C437       Br443   1.925       .  S
C438        C439   1.411       .  A
C439        C440   1.405       .  A
C439       Br448   1.929       .  S
C440       Br444   1.931       .  S
C449        C450   1.409       .  A
C449        C454   1.410       .  A
C450        C451   1.408       .  A
C450       Br462   1.925       .  S
C451        C452   1.408       .  A
C451       Br466   1.928       .  S
C452        C453   1.409       .  A
C452        C455   1.484       .  S
C453        C454   1.405       .  A
C453       Br461   1.931       .  S
C454       Br465   1.928       .  S
C455        C456   1.402       .  A
C455        C460   1.403       .  A
C456        C457   1.409       .  A
C456       Br467   1.934       .  S
C457        C458   1.429       .  A
C457       Br463   1.930       .  S
C458        C459   1.431       .  A
C459        C460   1.408       .  A
C459       Br468   1.940       .  S
C460       Br464   1.934       .  S
C469        C470   1.425       .  A
C469        C474   1.425       .  A
C470        C471   1.408       .  A
C470       Br482   1.935       .  S
C471        C472   1.404       .  A
C471       Br486   1.932       .  S
C472        C473   1.405       .  A
C472        C475   1.483       .  S
C473        C474   1.406       .  A
C473       Br481   1.934       .  S
C474       Br485   1.938       .  S
C475        C476   1.409       .  A
C475        C480   1.408       .  A
C476        C477   1.403       .  A
C476       Br487   1.930       .  S
C477        C478   1.409       .  A
C477       Br483   1.931       .  S
C478        C479   1.412       .  A
C479        C480   1.409       .  A
C479       Br488   1.926       .  S
C480       Br484   1.929       .  S
C489        C490   1.418       .  A
C489        C494   1.421       .  A
C490        C491   1.399       .  A
C490       Br502   1.937       .  S
C491        C492   1.407       .  A
C491       Br506   1.932       .  S
C492        C493   1.410       .  A
C492        C495   1.485       .  S
C493        C494   1.411       .  A
C493       Br501   1.931       .  S
C494       Br505   1.934       .  S
C495        C496   1.409       .  A
C495        C500   1.408       .  A
C496        C497   1.406       .  A
C496       Br507   1.933       .  S
C497        C498   1.414       .  A
C497       Br503   1.924       .  S
C498        C499   1.417       .  A
C499        C500   1.406       .  A
C499       Br508   1.933       .  S
C500       Br504   1.933       .  S
C509        C510   1.415   1_554  A
C510        C511   1.407       .  A
C510       Br522   1.931       .  S
C511        C512   1.407       .  A
C511       Br526   1.931       .  S
C512        C515   1.483       .  S
C513        C514   1.407       .  A
C513       Br521   1.931       .  S
C514       Br525   1.930       .  S
C515        C516   1.407       .  A
C516        C517   1.407   1_455  A
C516       Br527   1.932       .  S
C517        C518   1.415       .  A
C517       Br523   1.931       .  S
C519        C520   1.407       .  A
C519       Br528   1.932       .  S
C520       Br524   1.930   1_655  S
N529        N530   1.319       .  A
N529        C533   1.349       .  A
N529       Cu537   2.075       .  S
N530        C531   1.340       .  A
N530       Cu536   2.063   1_554  S
C531        C532   1.385       .  A
C531        H534   1.081       .  S
C532        C533   1.388       .  A
C532        C618   1.482       .  S
C533        H535   1.082       .  S
Cu536       N803   2.063       .  S
Cu537       N547   2.077       .  S
Cu538       N540   2.077       .  S
Cu538       N546   2.079       .  S
N539        N540   1.321       .  A
N539        C543   1.339       .  A
N539       Cu800   2.063       .  S
N540        C541   1.349       .  A
C541        C542   1.387       .  A
C541        H544   1.081       .  S
C542        C543   1.383       .  A
C542        C615   1.480       .  S
C543        H545   1.081       .  S
N546        N811   1.324       .  A
N546        C550   1.346       .  A
N547        N810   1.324   1_554  A
N547        C548   1.343       .  A
C548        C813   1.383   1_554  A
C548        H551   1.082       .  S
C549        C812   1.383       .  A
C549        C550   1.385       .  A
C549        C782   1.482       .  S
C550        H552   1.081       .  S
N553        N554   1.319       .  A
N553        C557   1.348       .  A
N553       Cu561   2.080       .  S
N554        C555   1.341       .  A
N554       Cu560   2.057       .  S
C555        C556   1.383       .  A
C556        C557   1.389       .  A
C556        C591   1.481       .  S
C557        H559   1.082       .  S
Cu560       N827   2.057       .  S
Cu561       N571   2.082       .  S
Cu562       N564   2.082       .  S
Cu562       N570   2.085       .  S
N563        N564   1.320       .  A
N563        C567   1.337       .  A
N563       Cu824   2.057       .  S
N564        C565   1.352       .  A
C565        C566   1.389       .  A
C565        H568   1.081       .  S
C566        C567   1.381       .  A
C566        C594   1.479       .  S
N570        N835   1.325   1_554  A
N570        C574   1.346       .  A
N571        N834   1.325       .  A
N571        C572   1.344       .  A
C572        C573   1.383       .  A
C572        H575   1.082       .  S
C573        C838   1.384       .  A
C573        C773   1.482       .  S
C574        C837   1.384       .  A
C574        H576   1.082       .  S
C577        C578   1.537       .  S
C577        C583   1.532       .  S
C577        C581   1.534       .  S
C577        C753   1.537       .  S
C578        H585   1.081       .  S
C578        C579   1.362       .  D
C579        C638   1.479       .  S
C579        C580   1.536       .  S
C580        C584   1.536       .  S
C580        C582   1.545       .  S
C580        H586   1.109       .  S
C581        H587   1.086       .  S
C581        C582   1.367       .  D
C582        C628   1.472       .  S
C583        H588   1.085       .  S
C583        C584   1.365       .  D
C584        C742   1.482       .  S
C589        C733   1.542       .  S
C590        C591   1.368       .  D
C591        C592   1.538       .  S
C592        C596   1.544       .  S
C592        C594   1.543       .  S
C592        H598   1.109       .  S
C593        C594   1.362       .  D
C595        H600   1.082       .  S
C595        C596   1.369       .  D
C596        C762   1.492       .  S
C601        C602   1.538       .  S
C601        C607   1.535       .  S
C601        C605   1.541       .  S
C601        C693   1.543       .  S
C602        H609   1.080       .  S
C602        C603   1.361       .  D
C603        C662   1.477       .  S
C604        C608   1.535       .  S
C604        H610   1.109       .  S
C605        H611   1.085       .  S
C605        C606   1.372       .  D
C606        C652   1.481       .  S
C607        H612   1.085       .  S
C608        C713   1.480       .  S
C613        C614   1.530       .  S
C613        C619   1.545       .  S
C613        C617   1.537       .  S
C613        C722   1.549       .  S
C614        H621   1.085       .  S
C614        C615   1.363       .  D
C615        C616   1.537       .  S
C616        C620   1.538       .  S
C616        C618   1.544       .  S
C616        H622   1.109       .  S
C617        H623   1.085       .  S
C617        C618   1.367       .  D
C619        H624   1.080       .  S
C619        C620   1.370       .  D
C620        C702   1.487       .  S
N625        N626   1.319       .  A
N625        C629   1.345       .  A
N625       Cu633   2.059       .  S
N626        C627   1.341       .  A
N626       Cu632   2.058       .  S
C627        C628   1.383       .  A
C627        H630   1.082       .  S
C628        C629   1.383       .  A
C629        H631   1.081       .  S
Cu632       N899   2.059       .  S
Cu633       N643   2.061       .  S
Cu634       N636   2.077       .  S
Cu634       N642   2.078       .  S
N635        N636   1.321       .  A
N635        C639   1.336       .  A
N635       Cu896   2.059       .  S
N636        C637   1.350       .  A
C637        C638   1.387       .  A
C637        H640   1.082       .  S
C638        C639   1.383       .  A
C639        H641   1.081       .  S
N642        N907   1.323   1_554  A
N642        C646   1.344       .  A
N643        N906   1.323       .  A
N643        C644   1.341       .  A
C644        C645   1.381       .  A
C644        H647   1.081       .  S
C645        C910   1.385       .  A
C645        C673   1.479       .  S
C646        C909   1.385       .  A
C646        H648   1.082       .  S
N649        N650   1.319       .  A
N649        C653   1.346       .  A
N650        C651   1.343       .  A
N650       Cu656   2.066       .  S
C651        C652   1.385       .  A
C651        H654   1.082       .  S
C652        C653   1.387       .  A
C653        H655   1.082       .  S
Cu656       N923   2.066       .  S
Cu657       N667   2.074       .  S
Cu658       N666   2.071       .  S
N659        N660   1.321       .  A
N659        C663   1.337       .  A
N659       Cu920   2.066       .  S
N660        C661   1.349       .  A
C661        C662   1.386       .  A
C661        H664   1.082       .  S
C662        C663   1.383       .  A
C663        H665   1.082       .  S
N666        N931   1.324   1_554  A
N666        C670   1.343       .  A
N667        N930   1.324       .  A
N667        C668   1.344       .  A
C668        C669   1.381       .  A
C668        H671   1.082       .  S
C669        C934   1.381       .  A
C669        C682   1.474       .  S
C670        C933   1.381       .  A
C670        H672   1.082       .  S
C673        C674   1.415       .  A
C673        C942   1.415       .  A
C674        C675   1.405       .  A
C674       Br686   1.932       .  S
C675        C676   1.406       .  A
C675       Br690   1.931       .  S
C676        C941   1.406       .  A
C676        C679   1.477       .  S
C677        C940   1.406       .  A
C677        C678   1.405       .  A
C677       Br685   1.932       .  S
C678        C937   1.415       .  A
C678       Br689   1.932       .  S
C679        C680   1.408       .  A
C679        C948   1.406       .  A
C680        C681   1.406       .  A
C680       Br691   1.930       .  S
C681        C682   1.411       .  A
C681       Br687   1.930       .  S
C682        C947   1.412       .  A
C683        C946   1.412       .  A
C683        C684   1.404       .  A
C683       Br692   1.931       .  S
C684        C943   1.406       .  A
C684       Br688   1.931       .  S
C693        C694   1.421       .  A
C693        C698   1.425       .  A
C694        C695   1.398       .  A
C694       Br706   1.936       .  S
C695        C696   1.405       .  A
C695       Br710   1.932       .  S
C696        C697   1.409       .  A
C696        C699   1.488       .  S
C697        C698   1.413       .  A
C697       Br705   1.932       .  S
C698       Br709   1.931       .  S
C699        C700   1.413       .  A
C699        C704   1.409       .  A
C700        C701   1.409       .  A
C700       Br711   1.934       .  S
C701        C702   1.411       .  A
C701       Br707   1.925       .  S
C702        C703   1.411       .  A
C703        C704   1.405       .  A
C703       Br712   1.929       .  S
C704       Br708   1.931       .  S
C713        C714   1.409       .  A
C713        C718   1.410       .  A
C714        C715   1.408       .  A
C714       Br726   1.925       .  S
C715        C716   1.408       .  A
C715       Br730   1.928       .  S
C716        C717   1.409       .  A
C716        C719   1.484       .  S
C717        C718   1.405       .  A
C717       Br725   1.931       .  S
C718       Br729   1.928       .  S
C719        C720   1.402       .  A
C719        C724   1.403       .  A
C720        C721   1.409       .  A
C720       Br731   1.934       .  S
C721        C722   1.429       .  A
C721       Br727   1.930       .  S
C722        C723   1.431       .  A
C723        C724   1.408       .  A
C723       Br732   1.940       .  S
C724       Br728   1.934       .  S
C733        C734   1.425       .  A
C733        C738   1.425       .  A
C734        C735   1.408       .  A
C734       Br746   1.935       .  S
C735        C736   1.404       .  A
C735       Br750   1.932       .  S
C736        C737   1.405       .  A
C736        C739   1.483       .  S
C737        C738   1.406       .  A
C737       Br745   1.934       .  S
C738       Br749   1.938       .  S
C739        C740   1.409       .  A
C739        C744   1.408       .  A
C740        C741   1.403       .  A
C740       Br751   1.930       .  S
C741        C742   1.409       .  A
C741       Br747   1.931       .  S
C742        C743   1.412       .  A
C743        C744   1.409       .  A
C743       Br752   1.926       .  S
C744       Br748   1.929       .  S
C753        C754   1.418       .  A
C753        C758   1.421       .  A
C754        C755   1.399       .  A
C754       Br766   1.937       .  S
C755        C756   1.407       .  A
C755       Br770   1.932       .  S
C756        C757   1.410       .  A
C756        C759   1.485       .  S
C757        C758   1.411       .  A
C757       Br765   1.931       .  S
C758       Br769   1.934       .  S
C759        C760   1.409       .  A
C759        C764   1.408       .  A
C760        C761   1.406       .  A
C760       Br771   1.933       .  S
C761        C762   1.414       .  A
C761       Br767   1.924       .  S
C762        C763   1.417       .  A
C763        C764   1.406       .  A
C763       Br772   1.933       .  S
C764       Br768   1.933       .  S
C773        C774   1.415       .  A
C773       C1042   1.412       .  A
C774        C775   1.407       .  A
C774       Br786   1.931       .  S
C775        C776   1.407       .  A
C775       Br790   1.931       .  S
C776       C1041   1.408       .  A
C776        C779   1.483       .  S
C777       C1040   1.408   1_554  A
C777        C778   1.407       .  A
C777       Br785   1.931       .  S
C778       C1037   1.412       .  A
C778       Br789   1.930       .  S
C779        C780   1.407       .  A
C779       C1048   1.407   1_455  A
C780        C781   1.407   1_455  A
C780       Br791   1.932       .  S
C781        C782   1.415       .  A
C781       Br787   1.931       .  S
C782       C1047   1.414       .  A
C783       C1046   1.414   1_554  A
C783        C784   1.407       .  A
C783       Br792   1.932       .  S
C784       C1043   1.407   1_654  A
C784       Br788   1.930   1_655  S
N793        N794   1.319       .  A
N793        C797   1.349       .  A
N793       Cu801   2.075       .  S
N794        C795   1.340       .  A
N794       Cu800   2.063       .  S
C795        C796   1.385       .  A
C795        H798   1.081       .  S
C796        C797   1.388       .  A
C796        C882   1.482       .  S
C797        H799   1.082       .  S
Cu801       N811   2.077       .  S
Cu802       N804   2.077       .  S
Cu802       N810   2.079       .  S
N803        N804   1.321       .  A
N803        C807   1.339       .  A
N804        C805   1.349       .  A
C805        C806   1.387       .  A
C805        H808   1.081       .  S
C806        C807   1.383       .  A
C806        C879   1.480       .  S
C807        H809   1.081       .  S
N810        C814   1.346       .  A
N811        C812   1.343       .  A
C812        H815   1.082       .  S
C813        C814   1.385       .  A
C813       C1046   1.482       .  S
C814        H816   1.081       .  S
N817        N818   1.319       .  A
N817        C821   1.348       .  A
N817       Cu825   2.080       .  S
N818        C819   1.341       .  A
N818       Cu824   2.057   1_556  S
C819        C820   1.383       .  A
C820        C821   1.389       .  A
C820        C855   1.481       .  S
C821        H823   1.082       .  S
Cu825       N835   2.082       .  S
Cu826       N828   2.082       .  S
Cu826       N834   2.085       .  S
N827        N828   1.320       .  A
N827        C831   1.337       .  A
N828        C829   1.352       .  A
C829        C830   1.389       .  A
C829        H832   1.081       .  S
C830        C831   1.381       .  A
C830        C858   1.479       .  S
N834        C838   1.346       .  A
N835        C836   1.344       .  A
C836        C837   1.383   1_556  A
C836        H839   1.082       .  S
C837       C1037   1.482       .  S
C838        H840   1.082       .  S
C841        C842   1.537       .  S
C841        C847   1.532       .  S
C841        C845   1.534       .  S
C841       C1017   1.537       .  S
C842        H849   1.081       .  S
C842        C843   1.362       .  D
C843        C902   1.479       .  S
C843        C844   1.536       .  S
C844        C848   1.536       .  S
C844        C846   1.545       .  S
C844        H850   1.109       .  S
C845        H851   1.086       .  S
C845        C846   1.367       .  D
C846        C892   1.472       .  S
C847        H852   1.085       .  S
C847        C848   1.365       .  D
C848       C1006   1.482       .  S
C853        C997   1.542       .  S
C854        C855   1.368       .  D
C855        C856   1.538       .  S
C856        C860   1.544       .  S
C856        C858   1.543       .  S
C856        H862   1.109       .  S
C857        C858   1.362       .  D
C859        H864   1.082       .  S
C859        C860   1.369       .  D
C860       C1026   1.492       .  S
C865        C866   1.538       .  S
C865        C871   1.535       .  S
C865        C869   1.541       .  S
C865        C957   1.543       .  S
C866        H873   1.080       .  S
C866        C867   1.361       .  D
C867        C926   1.477       .  S
C868        C872   1.535       .  S
C868        H874   1.109       .  S
C869        H875   1.085       .  S
C869        C870   1.372       .  D
C870        C916   1.481       .  S
C871        H876   1.085       .  S
C872        C977   1.480       .  S
C877        C878   1.530       .  S
C877        C883   1.545       .  S
C877        C881   1.537       .  S
C877        C986   1.549       .  S
C878        H885   1.085       .  S
C878        C879   1.363       .  D
C879        C880   1.537       .  S
C880        C884   1.538       .  S
C880        C882   1.544       .  S
C880        H886   1.109       .  S
C881        H887   1.085       .  S
C881        C882   1.367       .  D
C883        H888   1.080       .  S
C883        C884   1.370       .  D
C884        C966   1.487       .  S
N889        N890   1.319       .  A
N889        C893   1.345       .  A
N889       Cu897   2.059       .  S
N890        C891   1.341       .  A
N890       Cu896   2.058   1_556  S
C891        C892   1.383       .  A
C891        H894   1.082       .  S
C892        C893   1.383       .  A
C893        H895   1.081       .  S
Cu897       N907   2.061       .  S
Cu898       N900   2.077       .  S
Cu898       N906   2.078       .  S
N899        N900   1.321       .  A
N899        C903   1.336       .  A
N900        C901   1.350       .  A
C901        C902   1.387       .  A
C901        H904   1.082       .  S
C902        C903   1.383       .  A
C903        H905   1.081       .  S
N906        C910   1.344       .  A
N907        C908   1.341       .  A
C908        C909   1.381   1_556  A
C908        H911   1.081       .  S
C909        C937   1.479       .  S
C910        H912   1.082       .  S
N913        N914   1.319       .  A
N913        C917   1.346       .  A
N914        C915   1.343       .  A
N914       Cu920   2.066   1_556  S
C915        C916   1.385       .  A
C915        H918   1.082       .  S
C916        C917   1.387       .  A
C917        H919   1.082       .  S
Cu921       N931   2.074       .  S
Cu922       N930   2.071       .  S
N923        N924   1.321       .  A
N923        C927   1.337       .  A
N924        C925   1.349       .  A
C925        C926   1.386       .  A
C925        H928   1.082       .  S
C926        C927   1.383       .  A
C927        H929   1.082       .  S
N930        C934   1.343       .  A
N931        C932   1.344       .  A
C932        C933   1.381   1_556  A
C932        H935   1.082       .  S
C933        C946   1.474       .  S
C934        H936   1.082       .  S
C937        C938   1.415   1_554  A
C938        C939   1.405       .  A
C938       Br950   1.932       .  S
C939        C940   1.406   1_556  A
C939       Br954   1.931       .  S
C940        C943   1.477       .  S
C941        C942   1.405       .  A
C941       Br949   1.932       .  S
C942       Br953   1.932       .  S
C943        C944   1.408   1_554  A
C944        C945   1.406       .  A
C944       Br955   1.930       .  S
C945        C946   1.411   1_556  A
C945       Br951   1.930       .  S
C947        C948   1.404       .  A
C947       Br956   1.931       .  S
C948       Br952   1.931       .  S
C957        C958   1.421       .  A
C957        C962   1.425       .  A
C958        C959   1.398       .  A
C958       Br970   1.936       .  S
C959        C960   1.405       .  A
C959       Br974   1.932       .  S
C960        C961   1.409       .  A
C960        C963   1.488       .  S
C961        C962   1.413       .  A
C961       Br969   1.932       .  S
C962       Br973   1.931       .  S
C963        C964   1.413       .  A
C963        C968   1.409       .  A
C964        C965   1.409       .  A
C964       Br975   1.934       .  S
C965        C966   1.411       .  A
C965       Br971   1.925       .  S
C966        C967   1.411       .  A
C967        C968   1.405       .  A
C967       Br976   1.929       .  S
C968       Br972   1.931       .  S
C977        C978   1.409       .  A
C977        C982   1.410       .  A
C978        C979   1.408       .  A
C978       Br990   1.925       .  S
C979        C980   1.408       .  A
C979       Br994   1.928       .  S
C980        C981   1.409       .  A
C980        C983   1.484       .  S
C981        C982   1.405       .  A
C981       Br989   1.931       .  S
C982       Br993   1.928       .  S
C983        C984   1.402       .  A
C983        C988   1.403       .  A
C984        C985   1.409       .  A
C984       Br995   1.934       .  S
C985        C986   1.429       .  A
C985       Br991   1.930       .  S
C986        C987   1.431       .  A
C987        C988   1.408       .  A
C987       Br996   1.940       .  S
C988       Br992   1.934       .  S
C997        C998   1.425       .  A
C997       C1002   1.425       .  A
C998        C999   1.408       .  A
C998      Br1010   1.935       .  S
C999       C1000   1.404       .  A
C999      Br1014   1.932       .  S
C1000      C1001   1.405       .  A
C1000      C1003   1.483       .  S
C1001      C1002   1.406       .  A
C1001     Br1009   1.934       .  S
C1002     Br1013   1.938       .  S
C1003      C1004   1.409       .  A
C1003      C1008   1.408       .  A
C1004      C1005   1.403       .  A
C1004     Br1015   1.930       .  S
C1005      C1006   1.409       .  A
C1005     Br1011   1.931       .  S
C1006      C1007   1.412       .  A
C1007      C1008   1.409       .  A
C1007     Br1016   1.926       .  S
C1008     Br1012   1.929       .  S
C1017      C1018   1.418       .  A
C1017      C1022   1.421       .  A
C1018      C1019   1.399       .  A
C1018     Br1030   1.937       .  S
C1019      C1020   1.407       .  A
C1019     Br1034   1.932       .  S
C1020      C1021   1.410       .  A
C1020      C1023   1.485       .  S
C1021      C1022   1.411       .  A
C1021     Br1029   1.931       .  S
C1022     Br1033   1.934       .  S
C1023      C1024   1.409       .  A
C1023      C1028   1.408       .  A
C1024      C1025   1.406       .  A
C1024     Br1035   1.933       .  S
C1025      C1026   1.414       .  A
C1025     Br1031   1.924       .  S
C1026      C1027   1.417       .  A
C1027      C1028   1.406       .  A
C1027     Br1036   1.933       .  S
C1028     Br1032   1.933       .  S
C1037      C1038   1.415   1_554  A
C1038      C1039   1.407       .  A
C1038     Br1050   1.931       .  S
C1039      C1040   1.407       .  A
C1039     Br1054   1.931       .  S
C1040      C1043   1.483       .  S
C1041      C1042   1.407       .  A
C1041     Br1049   1.931       .  S
C1042     Br1053   1.930       .  S
C1043      C1044   1.407       .  A
C1044      C1045   1.407   1_455  A
C1044     Br1055   1.932       .  S
C1045      C1046   1.415       .  A
C1045     Br1051   1.931       .  S
C1047      C1048   1.407       .  A
C1047     Br1056   1.932       .  S
C1048     Br1052   1.930   1_655  S
