geometry optimzed in LAMMPS
_audit_creation_date              2020-11-30 
_audit_creation_method            'lammps2cif' 
_symmetry_space_group_name_H-M    'P1' 
_symmetry_Int_Tables_number       1 
_symmetry_cell_setting            triclinic 
loop_ 
_symmetry_equiv_pos_as_xyz 
  x,y,z 
_cell_length_a                    38.05906667534532 
_cell_length_b                    38.731487445279335 
_cell_length_c                    26.577941049146638 
_cell_angle_alpha                 90.40816093385477 
_cell_angle_beta                  90.01593565687479 
_cell_angle_gamma                 89.81763328291163 
loop_ 
_atom_site_label 
_atom_site_type_symbol 
_atom_site_fract_x 
_atom_site_fract_y 
_atom_site_fract_z 
_atom_site_charge 
C1          C  0.34879772  0.09957290  0.62625485     0.03150
C2          C  0.34327458  0.07955878  0.58262134    -0.13000
C3          C  0.32099872  0.05061588  0.58300616     0.00650
C4          C  0.30102997  0.04415161  0.62642778    -0.11530
C5          C  0.30229423  0.06688346  0.66777111     0.03140
C6          C  0.32743407  0.09333562  0.66835044    -0.10950
H7          H  0.35655670  0.08614684  0.54813354     0.08740
H8          H  0.28487479  0.02133406  0.62862952     0.06260
H9          H  0.33007542  0.10920710  0.70182143     0.06110
O10         O  0.46683020  0.29212898  0.66803382    -0.71760
O11         O  0.53574062  0.22076555  0.67177062    -0.71980
O12         O  0.53743832  0.28986089  0.66739289    -0.71840
O13         O  0.46488961  0.22258893  0.67261409    -0.71840
O14         O  0.46530574  0.21902244  0.59099257    -0.71800
O15         O  0.53644119  0.28751410  0.58561912    -0.71820
O16         O  0.53572542  0.21848463  0.58997354    -0.71770
O17         O  0.46542939  0.28824022  0.58642220    -0.71950
V18         V  0.50115659  0.25626788  0.66838916     1.35240
V19         V  0.50068804  0.25344031  0.58986726     1.35170
C20         C  0.45421771  0.30207636  0.62654895     0.77480
C21         C  0.54768527  0.20787446  0.63140517     0.77540
C22         C  0.54942551  0.29983359  0.62564294     0.77410
C23         C  0.45289076  0.20922118  0.63260838     0.77370
C24         C  0.65824034  0.10547303  0.62967641     0.03150
C25         C  0.65931097  0.08169826  0.58955520    -0.13000
C26         C  0.68508535  0.05565572  0.58772212     0.00650
C27         C  0.71046876  0.05418365  0.62593938    -0.11530
C28         C  0.70949800  0.07748169  0.66654041     0.03140
C29         C  0.68281246  0.10253009  0.66871469    -0.10950
H30         H  0.63992766  0.08339866  0.55977856     0.08740
H31         H  0.73089355  0.03478069  0.62426049     0.06260
H32         H  0.68111038  0.11961145  0.70105920     0.06110
C33         C  0.35064488  0.41113067  0.62172573     0.03150
C34         C  0.34903590  0.43423834  0.58155443    -0.13000
C35         C  0.32673456  0.46323644  0.58361520     0.00650
C36         C  0.30452488  0.46759324  0.62555936    -0.11530
C37         C  0.30477138  0.44356085  0.66496600     0.03140
C38         C  0.32782374  0.41525709  0.66253974    -0.10950
H39         H  0.36504528  0.42929777  0.54865759     0.08740
H40         H  0.28696208  0.48963715  0.62758729     0.06260
H41         H  0.32783861  0.39614332  0.69209034     0.06110
C42         C  0.66231364  0.39862872  0.61964092     0.03150
C43         C  0.66342314  0.42206286  0.57984904    -0.13000
C44         C  0.68504278  0.45131509  0.58223431     0.00650
C45         C  0.70731065  0.45571034  0.62404990    -0.11530
C46         C  0.70755650  0.43152808  0.66331966     0.03140
C47         C  0.68506946  0.40288124  0.66059871    -0.10950
H48         H  0.64715811  0.41740760  0.54711800     0.08740
H49         H  0.72427590  0.47808823  0.62629110     0.06260
H50         H  0.68505719  0.38395329  0.69036512     0.06110
C51         C  0.34842233  0.90187087  0.37426790     0.03150
C52         C  0.34706243  0.92482384  0.41527433    -0.13000
C53         C  0.32545089  0.95422493  0.41399776     0.00650
C54         C  0.30294248  0.95889414  0.37263847    -0.11530
C55         C  0.30203719  0.93457572  0.33326507     0.03140
C56         C  0.32584121  0.90685866  0.33337243    -0.10950
H57         H  0.36312011  0.91969691  0.44798813     0.08740
H58         H  0.28616303  0.98149925  0.37103068     0.06260
H59         H  0.32694245  0.88938718  0.30140348     0.06110
O60         O  0.54319969  0.71908208  0.33759608    -0.71760
O61         O  0.47427567  0.79018131  0.33245049    -0.71980
O62         O  0.54522977  0.78835128  0.33368808    -0.71840
O63         O  0.47276035  0.72123387  0.33600828    -0.71840
O64         O  0.47481073  0.72094661  0.41780742    -0.71800
O65         O  0.54174836  0.79350063  0.41505969    -0.71820
O66         O  0.47120316  0.78998992  0.41418071    -0.71770
O67         O  0.54533159  0.72431136  0.41895908    -0.71950
V68         V  0.50891804  0.75480328  0.33646111     1.35240
V69         V  0.50831340  0.75715996  0.41495580     1.35170
C70         C  0.55635763  0.70993582  0.37915501     0.77480
C71         C  0.46029797  0.80132601  0.37255401     0.77540
C72         C  0.55550668  0.80261605  0.37398056     0.77410
C73         C  0.46184957  0.70943218  0.37728016     0.77370
C74         C  0.65875970  0.91214038  0.37541071     0.03150
C75         C  0.66206122  0.93455197  0.41684704    -0.13000
C76         C  0.68661589  0.96155019  0.41676040     0.00650
C77         C  0.71024843  0.96409196  0.37642449    -0.11530
C78         C  0.70863218  0.94077017  0.33585430     0.03140
C79         C  0.68233086  0.91541465  0.33515162    -0.10950
H80         H  0.64564212  0.93095115  0.44953734     0.08740
H81         H  0.72997018  0.98406874  0.37667155     0.06260
H82         H  0.68040389  0.89799033  0.30318897     0.06110
C83         C  0.35193450  0.60769041  0.37541118     0.03150
C84         C  0.34630962  0.58709910  0.41757114    -0.13000
C85         C  0.32225821  0.55959762  0.41615568     0.00650
C86         C  0.30192043  0.55470991  0.37229386    -0.11530
C87         C  0.30660650  0.57594761  0.32988305     0.03140
C88         C  0.33273749  0.60148476  0.33150427    -0.10950
H89         H  0.36156431  0.59204410  0.45129357     0.08740
H90         H  0.28316289  0.53398690  0.37037841     0.06260
H91         H  0.33813146  0.61678418  0.29843399     0.06110
C92         C  0.65951587  0.60029469  0.37853581     0.03150
C93         C  0.66273169  0.57778610  0.41926858    -0.13000
C94         C  0.68515503  0.54882838  0.41651460     0.00650
C95         C  0.70432971  0.54295533  0.37193569    -0.11530
C96         C  0.70304999  0.56669643  0.33218396     0.03140
C97         C  0.68062025  0.59541145  0.33598274    -0.10950
H98         H  0.64702626  0.58244860  0.45265049     0.08740
H99         H  0.71980074  0.51969502  0.36743438     0.06260
H100        H  0.67929828  0.61389272  0.30560340     0.06110
O101        O  0.03643820  0.71872869  0.17112082    -0.71760
O102        O  0.96407991  0.78644675  0.16746172    -0.71980
O103        O  0.96623082  0.71700562  0.16877145    -0.71840
O104        O  0.03457782  0.78813219  0.16980393    -0.71840
O105        O  0.03923189  0.78383980  0.08856090    -0.71800
O106        O  0.96432952  0.71921937  0.08705031    -0.71820
O107        O  0.96885525  0.78856353  0.08602685    -0.71770
O108        O  0.03456573  0.71468244  0.08947621    -0.71950
V109        V  0.00035223  0.75259917  0.16777605     1.35240
V110        V  0.00169143  0.75161653  0.08928552     1.35170
C111        C  0.04703434  0.70459680  0.13089868     0.77480
C112        C  0.95491398  0.79971563  0.12615470     0.77540
C113        C  0.95343938  0.70633290  0.12769514     0.77410
C114        C  0.04902354  0.79768012  0.12943284     0.77370
C115        C  0.15785259  0.90096005  0.12570514     0.03150
C116        C  0.18085256  0.90551863  0.16625684    -0.13000
C117        C  0.20384339  0.93374401  0.16757879     0.00650
C118        C  0.20199943  0.95853527  0.12944677    -0.11530
C119        C  0.17957440  0.95385701  0.08786864     0.03140
C120        C  0.15838943  0.92422726  0.08565260    -0.10950
H121        H  0.18092270  0.88699478  0.19664365     0.08740
H122        H  0.21803826  0.98151568  0.13220576     0.06260
H123        H  0.14143469  0.91974182  0.05352679     0.06110
C124        C  0.15127985  0.59665162  0.13053895     0.03150
C125        C  0.17548821  0.59440443  0.16997365    -0.13000
C126        C  0.20608602  0.57438524  0.16500437     0.00650
C127        C  0.21085065  0.55428649  0.12121523    -0.11530
C128        C  0.18583560  0.55503964  0.08220225     0.03140
C129        C  0.15612542  0.57641558  0.08724920    -0.10950
H130        H  0.17063069  0.60887372  0.20427456     0.08740
H131        H  0.23425048  0.53850568  0.11711008     0.06260
H132        H  0.13716171  0.57791730  0.05693498     0.06110
C133        C  0.84561329  0.90394680  0.11930838     0.03150
C134        C  0.82516795  0.91098125  0.16214292    -0.13000
C135        C  0.80132553  0.93872389  0.16305576     0.00650
C136        C  0.80065470  0.96175943  0.12241021    -0.11530
C137        C  0.82081538  0.95512929  0.07904811     0.03140
C138        C  0.84235350  0.92562045  0.07748431    -0.10950
H139        H  0.82765145  0.89471479  0.19493196     0.08740
H140        H  0.78524466  0.98517705  0.12528840     0.06260
H141        H  0.85758189  0.92011603  0.04390387     0.06110
C142        C  0.85084343  0.59759055  0.12687728     0.03150
C143        C  0.82636725  0.59549905  0.16598576    -0.13000
C144        C  0.80054959  0.56973944  0.16550075     0.00650
C145        C  0.79789840  0.54756174  0.12359023    -0.11530
C146        C  0.82258262  0.54919344  0.08432374     0.03140
C147        C  0.84909917  0.57429026  0.08653572    -0.10950
H148        H  0.82737898  0.61404539  0.19666244     0.08740
H149        H  0.77647580  0.52932677  0.12158754     0.06260
H150        H  0.86818568  0.57607267  0.05640141     0.06110
O151        O  0.97315625  0.28928697  0.83237410    -0.71760
O152        O  0.04287636  0.21881010  0.83657697    -0.71980
O153        O  0.97231507  0.21968786  0.83682285    -0.71840
O154        O  0.04359570  0.28807092  0.83192989    -0.71840
O155        O  0.04259022  0.29212620  0.91357160    -0.71800
O156        O  0.97342178  0.22160526  0.91860678    -0.71820
O157        O  0.04399831  0.22259373  0.91809013    -0.71770
O158        O  0.97234147  0.29108405  0.91417822    -0.71950
V159        V  0.00794107  0.25398345  0.83601264     1.35240
V160        V  0.00809580  0.25674839  0.91452742     1.35170
C161        C  0.96114143  0.30228907  0.87261975     0.77480
C162        C  0.05581132  0.20913265  0.87802056     0.77540
C163        C  0.96111202  0.20875368  0.87851031     0.77410
C164        C  0.05471854  0.30210129  0.87188596     0.77370
C165        C  0.15511030  0.41381145  0.86895901     0.03150
C166        C  0.15867136  0.43613481  0.91046781    -0.13000
C167        C  0.18424788  0.46214906  0.91086697     0.00650
C168        C  0.20599750  0.46623889  0.86873492    -0.11530
C169        C  0.20332406  0.44373916  0.82722356     0.03140
C170        C  0.17830441  0.41715466  0.82818931    -0.10950
H171        H  0.14187753  0.43299394  0.94290619     0.08740
H172        H  0.22553190  0.48654400  0.86871101     0.06260
H173        H  0.17724364  0.39858103  0.79761600     0.06110
C174        C  0.15954008  0.09954854  0.87909926     0.03150
C175        C  0.18334466  0.09583395  0.83929554    -0.13000
C176        C  0.20748760  0.06834859  0.83836822     0.00650
C177        C  0.20689993  0.04396636  0.87729548    -0.11530
C178        C  0.18444735  0.04844630  0.91896307     0.03140
C179        C  0.16089000  0.07653575  0.91940693    -0.10950
H180        H  0.18298895  0.11436554  0.80892042     0.08740
H181        H  0.22335739  0.02124498  0.87444924     0.06260
H182        H  0.14309442  0.08027902  0.95082045     0.06110
C183        C  0.85436757  0.10348383  0.87762708     0.03150
C184        C  0.83171039  0.10067925  0.83628085    -0.13000
C185        C  0.80761467  0.07342454  0.83288976     0.00650
C186        C  0.80819099  0.04753686  0.86956374    -0.11530
C187        C  0.83033430  0.05031280  0.91174087     0.03140
C188        C  0.85264771  0.07901455  0.91604156    -0.10950
H189        H  0.83284684  0.11972362  0.80667159     0.08740
H190        H  0.79143710  0.02517350  0.86525961     0.06260
H191        H  0.86916120  0.08213703  0.94897179     0.06110
C192        C  0.85844067  0.41196071  0.86839993     0.03150
C193        C  0.83425984  0.41281575  0.82869580    -0.13000
C194        C  0.80776050  0.43805581  0.82726945     0.00650
C195        C  0.80428379  0.46122332  0.86794048    -0.11530
C196        C  0.82807189  0.46029202  0.90837775     0.03140
C197        C  0.85516770  0.43561808  0.90818023    -0.10950
H198        H  0.83574533  0.39330079  0.79937701     0.08740
H199        H  0.78266260  0.47945218  0.86850777     0.06260
H200        H  0.87319417  0.43426320  0.93968962     0.06110
C201        C  0.06897877  0.36401824  0.87922749    -0.20290
C202        C  0.08054439  0.33022662  0.86992960    -0.06850
C203        C  0.11613639  0.32400628  0.85837898     0.14020
C204        C  0.13987754  0.35167143  0.85904209    -0.20340
C205        C  0.12859529  0.38564164  0.86918827    -0.06860
C206        C  0.09234609  0.39199190  0.87777873     0.14010
C207        C  0.07763848  0.42810239  0.88247339    -0.23690
H208        H  0.04133273  0.36857366  0.88666993     0.15290
H209        H  0.16745711  0.34674916  0.85165785     0.15320
C210        C  0.12906015  0.28819510  0.84577096    -0.23640
H211        H  0.04845198  0.42805914  0.88331719     0.05530
H212        H  0.08597788  0.44370387  0.84971249     0.08760
H213        H  0.08655658  0.44066173  0.91772637     0.08760
H214        H  0.11521151  0.27830256  0.81187004     0.08740
H215        H  0.12388001  0.27075208  0.87773292     0.08740
H216        H  0.15772625  0.28778239  0.83796079     0.05520
C217        C  0.07964145  0.15374813  0.84594708    -0.20290
C218        C  0.08327484  0.18192255  0.87916009    -0.06850
C219        C  0.11254498  0.18286500  0.91231343     0.14020
C220        C  0.13673428  0.15540849  0.91174424    -0.20340
C221        C  0.13296083  0.12747442  0.87849757    -0.06860
C222        C  0.10392296  0.12640084  0.84552471     0.14010
C223        C  0.09798764  0.09595033  0.81095784    -0.23690
H224        H  0.05730073  0.15282473  0.82068899     0.15290
H225        H  0.15918178  0.15609375  0.93688557     0.15320
C226        C  0.12035128  0.21262498  0.94744210    -0.23640
H227        H  0.07334712  0.09874635  0.78893049     0.05530
H228        H  0.09604720  0.07196588  0.83342715     0.08760
H229        H  0.12010651  0.09343345  0.78398553     0.08760
H230        H  0.10207789  0.23465042  0.94379052     0.08740
H231        H  0.14709134  0.22260791  0.93947024     0.08740
H232        H  0.11955791  0.20352979  0.98694151     0.05520
C233        C  0.89881486  0.19108058  0.88231440    -0.20290
C234        C  0.93427399  0.18151184  0.88018120    -0.06850
C235        C  0.94351193  0.14625728  0.87901697     0.14020
C236        C  0.91683847  0.12128825  0.87892107    -0.20340
C237        C  0.88121920  0.13095252  0.87959132    -0.06860
C238        C  0.87206934  0.16627832  0.88198453     0.14010
C239        C  0.83432255  0.17798067  0.88571082    -0.23690
H240        H  0.89197148  0.21795932  0.88411279     0.15290
H241        H  0.92373201  0.09412650  0.87753233     0.15320
C242        C  0.98143635  0.13509410  0.87763198    -0.23640
H243        H  0.83223532  0.20645374  0.89013817     0.05530
H244        H  0.82169309  0.16591299  0.91884840     0.08760
H245        H  0.81970267  0.17070321  0.85118749     0.08760
H246        H  0.99536409  0.14521148  0.91134072     0.08740
H247        H  0.99414973  0.14531685  0.84327729     0.08740
H248        H  0.98412059  0.10652976  0.87713783     0.05520
C249        C  0.94613396  0.36443172  0.86767560    -0.20290
C250        C  0.93478852  0.33014527  0.87125167    -0.06850
C251        C  0.89858382  0.32297436  0.87394197     0.14020
C252        C  0.87432462  0.35020846  0.87304088    -0.20340
C253        C  0.88551538  0.38454416  0.86984251    -0.06860
C254        C  0.92184840  0.39185326  0.86695358     0.14010
C255        C  0.93497165  0.42830675  0.86162475    -0.23690
H256        H  0.97404268  0.36971195  0.86542607     0.15290
H257        H  0.84643561  0.34474858  0.87508631     0.15320
C258        C  0.88561375  0.28656996  0.87764667    -0.23640
H259        H  0.96401514  0.42913207  0.85769229     0.05530
H260        H  0.92779046  0.44383059  0.89531501     0.08760
H261        H  0.92319801  0.44023875  0.82767469     0.08760
H262        H  0.89624762  0.27475917  0.91243122     0.08740
H263        H  0.89458603  0.27168956  0.84415138     0.08740
H264        H  0.85648039  0.28530546  0.87921150     0.05520
C265        C  0.82249505  0.54047956  0.99171919    -0.20290
C266        C  0.82068368  0.52574519  0.03985452    -0.06850
C267        C  0.82056275  0.48931932  0.04423996     0.14020
C268        C  0.82159224  0.46886905  0.00044899    -0.20340
C269        C  0.82393276  0.48365505  0.95247973    -0.06860
C270        C  0.82485207  0.51998338  0.94810822     0.14010
C271        C  0.83060993  0.53732436  0.89816115    -0.23690
H272        H  0.82312166  0.56834897  0.98835488     0.15290
H273        H  0.82144914  0.44097907  0.00365799     0.15320
C274        C  0.82169252  0.47162379  0.09461317    -0.23640
H275        H  0.83362704  0.56570287  0.90253944     0.05530
H276        H  0.80793683  0.53285348  0.87284987     0.08760
H277        H  0.85491921  0.52709454  0.88031075     0.08760
H278        H  0.79667620  0.47553469  0.11513396     0.08740
H279        H  0.84389074  0.48180637  0.11734868     0.08740
H280        H  0.82550153  0.44330269  0.09043772     0.05520
C281        C  0.85528293  0.98975847  0.01849312    -0.20290
C282        C  0.82208983  0.97986237  0.03641131    -0.06850
C283        C  0.79170967  0.99161211  0.01088762     0.14020
C284        C  0.79538490  0.01423949  0.97022093    -0.20340
C285        C  0.82860496  0.02433152  0.95264471    -0.06860
C286        C  0.85899875  0.01052791  0.97592193     0.14010
C287        C  0.89567533  0.01535561  0.95566254    -0.23690
H288        H  0.87875978  0.98019674  0.03696008     0.15290
H289        H  0.77198918  0.02450343  0.95242447     0.15320
C290        C  0.75536106  0.97999858  0.02505383    -0.23640
H291        H  0.90848518  0.98973561  0.95087248     0.05530
H292        H  0.91135810  0.03098505  0.98264052     0.08760
H293        H  0.89622612  0.02773336  0.91826185     0.08760
H294        H  0.74735076  0.99276860  0.06055184     0.08740
H295        H  0.75464071  0.95148085  0.02892003     0.08740
H296        H  0.73566441  0.98731119  0.99613961     0.05520
C297        C  0.18373645  0.52138631  0.94715396    -0.20290
C298        C  0.18761504  0.48577651  0.95478793    -0.06850
C299        C  0.19507725  0.47358426  0.00370651     0.14020
C300        C  0.19549999  0.49702702  0.04423924    -0.20340
C301        C  0.18980065  0.53249862  0.03701395    -0.06860
C302        C  0.18562406  0.54498194  0.98733799     0.14010
C303        C  0.18419282  0.58290150  0.97494558    -0.23690
H304        H  0.17930143  0.53091133  0.90939684     0.15290
H305        H  0.19948539  0.48745444  0.08204683     0.15320
C306        C  0.20372317  0.43616812  0.01328552    -0.23640
H307        H  0.20455342  0.58879949  0.94636790     0.05530
H308        H  0.18952510  0.59979541  0.00784808     0.08760
H309        H  0.15797291  0.58944342  0.95929116     0.08760
H310        H  0.22593791  0.42794688  0.98886797     0.08740
H311        H  0.18066621  0.41957647  0.00565577     0.08740
H312        H  0.21159161  0.43187507  0.05300525     0.05520
C313        C  0.21243787  0.99057374  0.02798328    -0.20290
C314        C  0.17980770  0.97905267  0.04577657    -0.06850
C315        C  0.14876862  0.99117214  0.02215792     0.14020
C316        C  0.15147205  0.01184753  0.97923968    -0.20340
C317        C  0.18412641  0.02346460  0.96146273    -0.06860
C318        C  0.21501084  0.01327607  0.98730469     0.14010
C319        C  0.25083496  0.02664403  0.97371078    -0.23690
H320        H  0.23633019  0.98154417  0.04585613     0.15290
H321        H  0.12756758  0.02007503  0.96055335     0.15320
C322        C  0.11236800  0.98486320  0.04252053    -0.23640
H323        H  0.27034054  0.02148628  0.00386426     0.05530
H324        H  0.24997050  0.05500591  0.96798866     0.08760
H325        H  0.26033086  0.01313632  0.93953480     0.08760
H326        H  0.11239283  0.97307079  0.08032648     0.08740
H327        H  0.09751918  0.96810825  0.01600750     0.08740
H328        H  0.09827883  0.00989220  0.04650835     0.05520
C329        C  0.10631729  0.81923466  0.09855895    -0.20290
C330        C  0.07692282  0.82413538  0.12982004    -0.06850
C331        C  0.07459636  0.85429494  0.16005466     0.14020
C332        C  0.10172925  0.87866750  0.15820184    -0.20340
C333        C  0.13105037  0.87359201  0.12715844    -0.06860
C334        C  0.13365339  0.84346325  0.09735585     0.14010
C335        C  0.16547888  0.83668046  0.06507759    -0.23690
H336        H  0.10808006  0.79617513  0.07538168     0.15290
H337        H  0.09994101  0.90208688  0.18067081     0.15320
C338        C  0.04310365  0.86164804  0.19287563    -0.23640
H339        H  0.16364165  0.81150000  0.04499990     0.05530
H340        H  0.18939098  0.83622235  0.08902629     0.08760
H341        H  0.16814555  0.85728725  0.03655294     0.08760
H342        H  0.04122871  0.84205477  0.22297818     0.08740
H343        H  0.01879204  0.86122370  0.16983655     0.08740
H344        H  0.04486548  0.88739289  0.21137430     0.05520
C345        C  0.89463533  0.81954847  0.14430786    -0.20290
C346        C  0.92787425  0.82698158  0.12468038    -0.06850
C347        C  0.93386361  0.85944926  0.10244409     0.14020
C348        C  0.90645282  0.88369183  0.10114135    -0.20340
C349        C  0.87267251  0.87599950  0.11950535    -0.06860
C350        C  0.86650084  0.84275084  0.13965736     0.14010
C351        C  0.83052956  0.82978154  0.15380044    -0.23690
H352        H  0.89008878  0.79471810  0.16137877     0.15290
H353        H  0.91181551  0.90911603  0.08622461     0.15320
C354        C  0.96898322  0.87002371  0.08135851    -0.23640
H355        H  0.82561757  0.80472377  0.13449246     0.05530
H356        H  0.80904842  0.84731638  0.14212602     0.08760
H357        H  0.82920981  0.82577089  0.19507924     0.08760
H358        H  0.98961881  0.85005998  0.08565973     0.08740
H359        H  0.97823130  0.89367744  0.10108834     0.08740
H360        H  0.96614803  0.87572138  0.04067002     0.05520
C361        C  0.06276175  0.64262176  0.13173432    -0.20290
C362        C  0.07364664  0.67716484  0.13213721    -0.06850
C363        C  0.10970957  0.68513004  0.13316169     0.14020
C364        C  0.13434309  0.65818819  0.13329361    -0.20340
C365        C  0.12363854  0.62352593  0.13216774    -0.06860
C366        C  0.08743615  0.61555759  0.13189630     0.14010
C367        C  0.07483256  0.57874427  0.13321462    -0.23690
H368        H  0.03490249  0.63687073  0.13131646     0.15290
H369        H  0.16216517  0.66414707  0.13346259     0.15320
C370        C  0.12208849  0.72203955  0.13323658    -0.23640
H371        H  0.04571494  0.57732700  0.13511455     0.05530
H372        H  0.08571278  0.56566734  0.16686652     0.08760
H373        H  0.08337589  0.56467171  0.09885259     0.08760
H374        H  0.11166460  0.73584353  0.16683974     0.08740
H375        H  0.11254937  0.73507253  0.09876641     0.08740
H376        H  0.15121112  0.72375827  0.13397684     0.05520
C377        C  0.93777034  0.64489242  0.13616659    -0.20290
C378        C  0.92691589  0.67890652  0.12725824    -0.06850
C379        C  0.89111928  0.68618238  0.11863034     0.14020
C380        C  0.86677468  0.65910881  0.11888252    -0.20340
C381        C  0.87761553  0.62501781  0.12727914    -0.06860
C382        C  0.91347137  0.61771631  0.13605138     0.14010
C383        C  0.92594404  0.58147556  0.14624647    -0.23690
H384        H  0.96534812  0.63961845  0.14302927     0.15290
H385        H  0.83915941  0.66448863  0.11251790     0.15320
C386        C  0.87855589  0.72259311  0.11088496    -0.23640
H387        H  0.95465025  0.58056226  0.15372215     0.05530
H388        H  0.92051967  0.56463397  0.11322877     0.08760
H389        H  0.91211625  0.57113492  0.17966853     0.08760
H390        H  0.89177894  0.73399538  0.07772069     0.08740
H391        H  0.88484641  0.73797098  0.14495215     0.08740
H392        H  0.84971376  0.72385141  0.10473324     0.05520
C393        C  0.76306570  0.55936203  0.29729988    -0.20290
C394        C  0.72691160  0.56299538  0.28817423    -0.06850
C395        C  0.71500368  0.56592898  0.23786315     0.14020
C396        C  0.73959642  0.56858938  0.19881953    -0.20340
C397        C  0.77578685  0.56653316  0.20827495    -0.06860
C398        C  0.78761370  0.56049322  0.25795761     0.14010
C399        C  0.82588059  0.55418686  0.26965592    -0.23690
H400        H  0.77225129  0.55645696  0.33565968     0.15290
H401        H  0.73040621  0.57196651  0.16053470     0.15320
C402        C  0.67670138  0.56496909  0.22376687    -0.23640
H403        H  0.82986545  0.54722626  0.30973141     0.05530
H404        H  0.84159831  0.57765232  0.26245894     0.08760
H405        H  0.83594765  0.53252977  0.24609754     0.08760
H406        H  0.66845419  0.59045563  0.20889608     0.08740
H407        H  0.65973642  0.55792643  0.25586255     0.08740
H408        H  0.67248704  0.54497919  0.19423134     0.05520
C409        C  0.27042158  0.60530604  0.26513664    -0.20290
C410        C  0.28276742  0.57398886  0.28518813    -0.06850
C411        C  0.27157774  0.54261523  0.26248199     0.14020
C412        C  0.24590607  0.54352083  0.22442034    -0.20340
C413        C  0.23312783  0.57491799  0.20543212    -0.06860
C414        C  0.24707663  0.60623607  0.22445647     0.14010
C415        C  0.23926030  0.64072763  0.20059338    -0.23690
H416        H  0.27901986  0.62954579  0.28149839     0.15290
H417        H  0.23637860  0.51942623  0.20859100     0.15320
C418        C  0.28730855  0.50794877  0.27493055    -0.23640
H419        H  0.25639081  0.66141605  0.21603707     0.05530
H420        H  0.21183104  0.64890181  0.20774178     0.08760
H421        H  0.24408360  0.63916826  0.15943480     0.08760
H422        H  0.26725678  0.49158576  0.29339812     0.08740
H423        H  0.31082302  0.50985208  0.29929970     0.08740
H424        H  0.29604868  0.49494731  0.23969211     0.05520
C425        C  0.71898287  0.94476326  0.24415791    -0.20290
C426        C  0.73327236  0.94332205  0.29273732    -0.06850
C427        C  0.77020695  0.94146478  0.29855535     0.14020
C428        C  0.79172059  0.94211633  0.25562977    -0.20340
C429        C  0.77737756  0.94306831  0.20692205    -0.06860
C430        C  0.74037590  0.94383946  0.20126968     0.14010
C431        C  0.72296469  0.94161575  0.15046190    -0.23690
H432        H  0.69066789  0.94564439  0.23975265     0.15290
H433        H  0.82000673  0.94068770  0.26000962     0.15320
C434        C  0.78711932  0.93632336  0.34930043    -0.23640
H435        H  0.69405631  0.93843919  0.15366966     0.05530
H436        H  0.73340695  0.91916003  0.12891902     0.08760
H437        H  0.72755776  0.96571423  0.12961874     0.08760
H438        H  0.77554908  0.91344633  0.36793307     0.08740
H439        H  0.78342495  0.95946533  0.37342059     0.08740
H440        H  0.81587126  0.93186736  0.34594672     0.05520
C441        C  0.57234079  0.86323758  0.38774856    -0.20290
C442        C  0.58239188  0.82988423  0.37318270    -0.06850
C443        C  0.61740642  0.82365951  0.35798788     0.14020
C444        C  0.64171733  0.85082061  0.35999547    -0.20340
C445        C  0.63166679  0.88444224  0.37467464    -0.06860
C446        C  0.59594544  0.89090523  0.38676048     0.14010
C447        C  0.58160646  0.92689779  0.39520700    -0.23690
H448        H  0.54557946  0.86788204  0.39908345     0.15290
H449        H  0.66885434  0.84558667  0.35006928     0.15320
C450        C  0.63027725  0.78874777  0.34044815    -0.23640
H451        H  0.55241093  0.92711711  0.39550536     0.05530
H452        H  0.59026388  0.94410397  0.36438985     0.08760
H453        H  0.59011443  0.93749714  0.43196674     0.08760
H454        H  0.60963239  0.76867294  0.34104752     0.08740
H455        H  0.65210571  0.78004230  0.36505512     0.08740
H456        H  0.64018956  0.79072048  0.30128695     0.05520
C457        C  0.39926456  0.69389446  0.37111227    -0.20290
C458        C  0.43412248  0.68324265  0.37794943    -0.06850
C459        C  0.44195510  0.64798970  0.38454289     0.14020
C460        C  0.41452365  0.62391167  0.38382194    -0.20340
C461        C  0.37957129  0.63441911  0.37646495    -0.06860
C462        C  0.37173729  0.66988518  0.37060619     0.14010
C463        C  0.33444601  0.68262039  0.36548151    -0.23690
H464        H  0.39360349  0.72113068  0.36641776     0.15290
H465        H  0.42035550  0.59669562  0.38839875     0.15320
C466        C  0.47926199  0.63581359  0.39130157    -0.23640
H467        H  0.33313958  0.71125727  0.36409071     0.05530
H468        H  0.31870084  0.67400053  0.39820761     0.08760
H469        H  0.32253110  0.67250803  0.33031851     0.08760
H470        H  0.49084216  0.64805267  0.42534192     0.08740
H471        H  0.49500256  0.64299358  0.35786869     0.08740
H472        H  0.48080889  0.60735048  0.39569312     0.05520
C473        C  0.57809864  0.65320120  0.34995177    -0.20290
C474        C  0.58311646  0.68225527  0.38083160    -0.06850
C475        C  0.61322420  0.68405350  0.41205364     0.14020
C476        C  0.63791980  0.65697741  0.41058933    -0.20340
C477        C  0.63284890  0.62810642  0.37935715    -0.06860
C478        C  0.60221084  0.62582930  0.34956524     0.14010
C479        C  0.59446218  0.59422523  0.31818809    -0.23690
H480        H  0.55487367  0.65169003  0.32645020     0.15290
H481        H  0.66134745  0.65833100  0.43371944     0.15320
C482        C  0.61994421  0.71470993  0.44588107    -0.23640
H483        H  0.56837852  0.59595282  0.29959909     0.05530
H484        H  0.59455548  0.57094969  0.34235467     0.08760
H485        H  0.61453775  0.59135911  0.28834968     0.08760
H486        H  0.59918347  0.71654902  0.47507506     0.08740
H487        H  0.62012233  0.73873660  0.42346055     0.08740
H488        H  0.64564277  0.71259736  0.46545294     0.05520
C489        C  0.21675115  0.93689396  0.25892688    -0.20290
C490        C  0.22940846  0.93721970  0.20936428    -0.06850
C491        C  0.26610826  0.93790834  0.20076514     0.14020
C492        C  0.28908642  0.93854498  0.24204149    -0.20340
C493        C  0.27642120  0.93780633  0.29158660    -0.06860
C494        C  0.23974772  0.93680645  0.30017156     0.14010
C495        C  0.22468980  0.93357061  0.35241623    -0.23690
H496        H  0.18863769  0.93583701  0.26529368     0.15290
H497        H  0.31722543  0.93871342  0.23568403     0.15320
C498        C  0.28133480  0.93589078  0.14842331    -0.23640
H499        H  0.19568678  0.93050591  0.35162627     0.05530
H500        H  0.23048654  0.95702766  0.37499115     0.08760
H501        H  0.23604264  0.91058292  0.37122606     0.08760
H502        H  0.27450095  0.95937184  0.12692382     0.08740
H503        H  0.27107333  0.91272330  0.12851646     0.08740
H504        H  0.31045492  0.93393412  0.14915367     0.05520
C505        C  0.41117046  0.88620670  0.37514039    -0.20290
C506        C  0.37619636  0.87509796  0.37231788    -0.06850
C507        C  0.36887619  0.83935453  0.36888799     0.14020
C508        C  0.39696371  0.81567568  0.36797572    -0.20340
C509        C  0.43183814  0.82701260  0.37109431    -0.06860
C510        C  0.43899762  0.86255573  0.37499439     0.14010
C511        C  0.47595451  0.87543961  0.38031280    -0.23690
H512        H  0.41668085  0.91360692  0.37799583     0.15290
H513        H  0.39173003  0.78821531  0.36573155     0.15320
C514        C  0.33173157  0.82601399  0.36847804    -0.23640
H515        H  0.47710167  0.90406543  0.38253054     0.05530
H516        H  0.49182051  0.86679997  0.34747393     0.08760
H517        H  0.48728077  0.86491945  0.41550848     0.08760
H518        H  0.31779927  0.83465790  0.33417337     0.08740
H519        H  0.31753252  0.83562177  0.40229800     0.08740
H520        H  0.33101849  0.79734308  0.36879595     0.05520
C521        C  0.76835401  0.43864871  0.69542281    -0.20290
C522        C  0.73240018  0.43548826  0.70609101    -0.06850
C523        C  0.72111255  0.43634880  0.75684795     0.14020
C524        C  0.74629172  0.43737207  0.79546813    -0.20340
C525        C  0.78238558  0.43872034  0.78477343    -0.06860
C526        C  0.79345057  0.44084610  0.73401183     0.14010
C527        C  0.83135231  0.44701821  0.72013524    -0.23690
H528        H  0.77687792  0.43912996  0.65651402     0.15290
H529        H  0.73775061  0.43683665  0.83435998     0.15320
C530        C  0.68269386  0.43786635  0.77066319    -0.23640
H531        H  0.83447864  0.45137036  0.67911761     0.05530
H532        H  0.84790253  0.42448466  0.72985796     0.08760
H533        H  0.84119491  0.47031187  0.74016843     0.08760
H534        H  0.66926172  0.41354107  0.76027223     0.08740
H535        H  0.66991546  0.45982068  0.75111861     0.08740
H536        H  0.67895202  0.44174193  0.81176776     0.05520
C537        C  0.71677457  0.48742250  0.51972235    -0.20290
C538        C  0.68468375  0.47697355  0.54073153    -0.06850
C539        C  0.65311132  0.49181508  0.52255989     0.14020
C540        C  0.65433102  0.51400083  0.48113092    -0.20340
C541        C  0.68631172  0.52385312  0.45908928    -0.06860
C542        C  0.71812901  0.51128291  0.48010779     0.14010
C543        C  0.75361423  0.52424816  0.46353271    -0.23690
H544        H  0.74104925  0.47693344  0.53462646     0.15290
H545        H  0.62991551  0.52410651  0.46616444     0.15320
C546        C  0.61824963  0.48650916  0.54849762    -0.23640
H547        H  0.77484523  0.51536257  0.48909069     0.05530
H548        H  0.75380677  0.55291477  0.46387777     0.08760
H549        H  0.76027477  0.51445869  0.42550891     0.08760
H550        H  0.62091402  0.49217383  0.58933505     0.08740
H551        H  0.60861435  0.45984329  0.54296753     0.08740
H552        H  0.59766303  0.50398850  0.53338360     0.05520
C553        C  0.24338369  0.44804970  0.69582143    -0.20290
C554        C  0.27938535  0.44670759  0.70712430    -0.06850
C555        C  0.29023230  0.44767009  0.75801674     0.14020
C556        C  0.26476182  0.44688574  0.79615141    -0.20340
C557        C  0.22869466  0.44629961  0.78488623    -0.06860
C558        C  0.21787517  0.44837929  0.73399334     0.14010
C559        C  0.17975845  0.45249138  0.71955046    -0.23690
H560        H  0.23517078  0.44837145  0.65676257     0.15290
H561        H  0.27308999  0.44636432  0.83514786     0.15320
C562        C  0.32842252  0.45099598  0.77245332    -0.23640
H563        H  0.17668958  0.45718446  0.67859762     0.05530
H564        H  0.16820304  0.47489937  0.73998864     0.08760
H565        H  0.16468379  0.42890632  0.72831225     0.08760
H566        H  0.33992772  0.47390702  0.75383168     0.08740
H567        H  0.34340587  0.42761558  0.76135889     0.08740
H568        H  0.33169278  0.45438820  0.81372441     0.05520
C569        C  0.29313978  0.49864375  0.52171104    -0.20290
C570        C  0.32582928  0.48839013  0.54140707    -0.06850
C571        C  0.35676867  0.50305759  0.52134866     0.14020
C572        C  0.35431701  0.52465550  0.47944560    -0.20340
C573        C  0.32173950  0.53466084  0.45897702    -0.06860
C574        C  0.29057095  0.52223494  0.48178487     0.14010
C575        C  0.25457314  0.53494587  0.46687839    -0.23690
H576        H  0.26931801  0.48821992  0.53789220     0.15290
H577        H  0.37837250  0.53428093  0.46293270     0.15320
C578        C  0.39230598  0.49833026  0.54572638    -0.23640
H579        H  0.23438035  0.52741519  0.49487495     0.05530
H580        H  0.24642498  0.52348326  0.43048070     0.08760
H581        H  0.25439407  0.56356131  0.46467838     0.08760
H582        H  0.40244509  0.47184779  0.53961636     0.08740
H583        H  0.39045169  0.50396486  0.58666872     0.08740
H584        H  0.41212681  0.51616135  0.52974360     0.05520
C585        C  0.72257922  0.07185127  0.75742398    -0.20290
C586        C  0.73533235  0.07493966  0.70813264    -0.06850
C587        C  0.77198165  0.07744776  0.70004129     0.14020
C588        C  0.79485990  0.07546324  0.74133259    -0.20340
C589        C  0.78211987  0.07227302  0.79065034    -0.06860
C590        C  0.74537492  0.07112029  0.79886385     0.14010
C591        C  0.72979671  0.07124894  0.85107732    -0.23690
H592        H  0.69444659  0.07062173  0.76355381     0.15290
H593        H  0.82296397  0.07716300  0.73523485     0.15320
C594        C  0.78713340  0.08437908  0.64865994    -0.23640
H595        H  0.70071977  0.07374057  0.85010969     0.05530
H596        H  0.74026031  0.09342430  0.87307786     0.08760
H597        H  0.73595899  0.04682438  0.87063814     0.08760
H598        H  0.77465448  0.10775366  0.63247019     0.08740
H599        H  0.78294122  0.06204485  0.62317145     0.09180
H600        H  0.81590677  0.08894800  0.65041930     0.05520
C601        C  0.68546877  0.04430849  0.49565772    -0.20290
C602        C  0.68617907  0.03098648  0.54464176    -0.06850
C603        C  0.68637722  0.99473767  0.55125494     0.14020
C604        C  0.68807251  0.97304166  0.50882215    -0.20340
C605        C  0.68769384  0.98633562  0.45977828    -0.06860
C606        C  0.68535207  0.02255366  0.45318992     0.14010
C607        C  0.68043751  0.03856645  0.40205443    -0.23690
H608        H  0.68447283  0.07204523  0.49061646     0.15290
H609        H  0.68896135  0.94531459  0.51396688     0.15320
C610        C  0.68238693  0.97852988  0.60240891    -0.23640
H611        H  0.67489568  0.06668551  0.40497922     0.05530
H612        H  0.65785654  0.02632820  0.38247173     0.08760
H613        H  0.70448548  0.03563202  0.37901252     0.08760
H614        H  0.65889220  0.98938439  0.62166443     0.08740
H615        H  0.70601405  0.98299775  0.62579023     0.08740
H616        H  0.67884658  0.95012674  0.59952854     0.05520
C617        C  0.43591235  0.36254971  0.64262566    -0.20290
C618        C  0.42723149  0.32949272  0.62493749    -0.06850
C619        C  0.39313923  0.32326991  0.60589483     0.14020
C620        C  0.36837361  0.35026954  0.60550026    -0.20340
C621        C  0.37739003  0.38344593  0.62228582    -0.06860
C622        C  0.41161574  0.38981785  0.64052259     0.14010
C623        C  0.42244874  0.42539325  0.65769355    -0.23690
H624        H  0.46191792  0.36716997  0.65750928     0.15290
H625        H  0.34197911  0.34560303  0.59176587     0.15320
C626        C  0.38267648  0.28805386  0.58698757    -0.23640
H627        H  0.45015465  0.42587722  0.67083770     0.05530
H628        H  0.40536744  0.43412687  0.68918761     0.08760
H629        H  0.41993879  0.44377541  0.62603890     0.08760
H630        H  0.38651352  0.26885060  0.61711937     0.08740
H631        H  0.39907249  0.28067370  0.55409805     0.08740
H632        H  0.35467660  0.28731484  0.57525015     0.05520
C633        C  0.61046803  0.19214393  0.63622541    -0.20290
C634        C  0.57547170  0.18145537  0.63237262    -0.06850
C635        C  0.56770079  0.14606618  0.62737000     0.14020
C636        C  0.59518866  0.12187960  0.62767191    -0.20340
C637        C  0.63038408  0.13237215  0.63158478    -0.06860
C638        C  0.63816765  0.16809223  0.63513720     0.14010
C639        C  0.67543125  0.18123922  0.63499484    -0.23690
H640        H  0.61612955  0.21951178  0.63897098     0.15290
H641        H  0.58923159  0.09460760  0.62431722     0.15320
C642        C  0.53048227  0.13395170  0.62074911    -0.23640
H643        H  0.67632185  0.20987840  0.63337684     0.05530
H644        H  0.68959907  0.17092246  0.60158446     0.08760
H645        H  0.68935795  0.17343013  0.66969806     0.08760
H646        H  0.51970555  0.14498562  0.58555074     0.08740
H647        H  0.51425117  0.14257000  0.65322887     0.08740
H648        H  0.52885295  0.10537625  0.61789355     0.05520
C649        C  0.61269673  0.31339999  0.61672869    -0.20290
C650        C  0.57812366  0.32516000  0.62376259    -0.06850
C651        C  0.57147847  0.36078604  0.62934605     0.14020
C652        C  0.59956979  0.38403268  0.62749305    -0.20340
C653        C  0.63421278  0.37239119  0.62092742    -0.06860
C654        C  0.64097429  0.33668473  0.61555272     0.14010
C655        C  0.67774361  0.32327400  0.60762785    -0.23690
H656        H  0.61754860  0.28594068  0.61245201     0.15290
H657        H  0.59457557  0.41148960  0.63162250     0.15320
C658        C  0.53475869  0.37421595  0.63720105    -0.23640
H659        H  0.67819425  0.29475824  0.60284716     0.05530
H660        H  0.69436886  0.32991533  0.64057165     0.08760
H661        H  0.68915884  0.33497962  0.57332840     0.08760
H662        H  0.52391946  0.36335997  0.67245372     0.08740
H663        H  0.51793961  0.36643751  0.60493613     0.08740
H664        H  0.53407568  0.40282208  0.64040404     0.05520
C665        C  0.29124325  0.06326202  0.75978992    -0.20290
C666        C  0.27752326  0.06359514  0.71077564    -0.06850
C667        C  0.24059740  0.06511952  0.70418646     0.14020
C668        C  0.21858612  0.06501615  0.74651458    -0.20340
C669        C  0.23232696  0.06491457  0.79546644    -0.06860
C670        C  0.26923063  0.06471720  0.80212028     0.14010
C671        C  0.28572790  0.06816834  0.85336585    -0.23690
H672        H  0.31950226  0.06297949  0.76493861     0.15290
H673        H  0.19032737  0.06599094  0.74144323     0.15320
C674        C  0.22407728  0.06895302  0.65304185    -0.23640
H675        H  0.31468661  0.07124915  0.85102200     0.05530
H676        H  0.28064034  0.04466470  0.87532153     0.08760
H677        H  0.27487672  0.09112284  0.87331166     0.08760
H678        H  0.22793051  0.04498146  0.63104594     0.08740
H679        H  0.23587422  0.09114892  0.63301662     0.08740
H680        H  0.19530471  0.07353657  0.65558238     0.05520
C681        C  0.29248339  0.98923736  0.47690807    -0.20290
C682        C  0.32506528  0.97933291  0.45665551    -0.06850
C683        C  0.35606078  0.99438845  0.47639854     0.14020
C684        C  0.35363534  0.01679092  0.51801529    -0.20340
C685        C  0.32104809  0.02619140  0.53915101    -0.06860
C686        C  0.28995816  0.01293429  0.51694611     0.14010
C687        C  0.25386354  0.02426061  0.53334625    -0.23690
H688        H  0.26865115  0.97829298  0.46122622     0.15290
H689        H  0.37756287  0.02720025  0.53410180     0.15320
C690        C  0.39157065  0.98885706  0.45227234    -0.23640
H691        H  0.23397836  0.01886991  0.50372702     0.05530
H692        H  0.25328060  0.05248887  0.54088726     0.08760
H693        H  0.24596450  0.00959314  0.56706116     0.08760
H694        H  0.38997332  0.99437401  0.41139484     0.08740
H695        H  0.40104033  0.96214237  0.45800069     0.08740
H696        H  0.41171962  0.00627912  0.46875087     0.05520
C697        C  0.36862684  0.15841429  0.65395493    -0.20290
C698        C  0.37615629  0.12736926  0.62800794    -0.06850
C699        C  0.41018435  0.12314545  0.60672244     0.14020
C700        C  0.43379582  0.15087142  0.60795187    -0.20340
C701        C  0.42613086  0.18163620  0.63371627    -0.06860
C702        C  0.39348734  0.18497785  0.65867959     0.14010
C703        C  0.38339786  0.21611333  0.68988526    -0.23690
H704        H  0.34299761  0.16223992  0.67085909     0.15290
H705        H  0.45895578  0.14815563  0.58944416     0.15320
C706        C  0.42331383  0.08915169  0.58569585    -0.23640
H707        H  0.37851624  0.20799106  0.72925159     0.05530
H708        H  0.35887870  0.22765323  0.67472733     0.08760
H709        H  0.40369797  0.23646075  0.69065501     0.08760
H710        H  0.41388951  0.08523151  0.54666023     0.08740
H711        H  0.41496401  0.06748412  0.61002033     0.08740
H712        H  0.45248835  0.08846107  0.58417782     0.05520
loop_ 
_geom_bond_atom_site_label_1 
_geom_bond_atom_site_label_2 
_geom_bond_distance 
_geom_bond_site_symmetry_2 
_ccdc_geom_bond_type 
C1            C2   1.406       .  A
C1            C6   1.406       .  A
C1          C698   1.501       .  S
C2            C3   1.408       .  A
C2            H7   1.079       .  S
C3            C4   1.406       .  A
C3          C685   1.496       .  S
C4            C5   1.404       .  A
C4            H8   1.080       .  S
C5            C6   1.404       .  A
C5          C666   1.488       .  S
C6            H9   1.083       .  S
O10          V18   1.904       .  S
O10          C20   1.265       .  A
O11          V18   1.903       .  S
O11          C21   1.264       .  A
O12          V18   1.901       .  S
O12          C22   1.263       .  A
O13          V18   1.906       .  S
O13          C23   1.265       .  A
O14          V19   1.898       .  S
O14          C23   1.264       .  A
O15          V19   1.903       .  S
O15          C22   1.264       .  A
O16          V19   1.897       .  S
O16          C21   1.262       .  A
O17          V19   1.902       .  S
O17          C20   1.264       .  A
V18          V19   2.089       .  T
C20         C618   1.476       .  S
C21         C634   1.470       .  S
C22         C650   1.471       .  S
C23         C701   1.479       .  S
C24          C25   1.404       .  A
C24          C29   1.402       .  A
C24         C637   1.485       .  S
C25          C26   1.405       .  A
C25          H30   1.084       .  S
C26          C27   1.403       .  A
C26         C602   1.487       .  S
C27          C28   1.402       .  A
C27          H31   1.080       .  S
C28          C29   1.403       .  A
C28         C586   1.483       .  S
C29          H32   1.083       .  S
C33          C34   1.399       .  A
C33          C38   1.398       .  A
C33         C621   1.476       .  S
C34          C35   1.406       .  A
C34          H39   1.081       .  S
C35          C36   1.408       .  A
C35         C570   1.491       .  S
C36          C37   1.406       .  A
C36          H40   1.084       .  S
C37          C38   1.403       .  A
C37         C554   1.484       .  S
C38          H41   1.083       .  S
C42          C43   1.399       .  A
C42          C47   1.400       .  A
C42         C653   1.478       .  S
C43          C44   1.403       .  A
C43          H48   1.082       .  S
C44          C45   1.407       .  A
C44         C538   1.490       .  S
C45          C46   1.407       .  A
C45          H49   1.084       .  S
C46          C47   1.405       .  A
C46         C522   1.486       .  S
C47          H50   1.082       .  S
C51          C52   1.402       .  A
C51          C56   1.400       .  A
C51         C506   1.479       .  S
C52          C53   1.403       .  A
C52          H57   1.082       .  S
C53          C54   1.406       .  A
C53         C682   1.488       .  S
C54          C55   1.403       .  A
C54          H58   1.083       .  S
C55          C56   1.403       .  A
C55         C493   1.481       .  S
C56          H59   1.083       .  S
O60          V68   1.899       .  S
O60          C70   1.265       .  A
O61          V68   1.902       .  S
O61          C71   1.264       .  A
O62          V68   1.902       .  S
O62          C72   1.264       .  A
O63          V68   1.896       .  S
O63          C73   1.262       .  A
O64          V69   1.900       .  S
O64          C73   1.264       .  A
O65          V69   1.900       .  S
O65          C72   1.264       .  A
O66          V69   1.898       .  S
O66          C71   1.263       .  A
O67          V69   1.899       .  S
O67          C70   1.263       .  A
V68          V69   2.088       .  T
C70         C474   1.477       .  S
C71         C509   1.469       .  S
C72         C442   1.473       .  S
C73         C458   1.466       .  S
C74          C75   1.403       .  A
C74          C79   1.403       .  A
C74         C445   1.490       .  S
C75          C76   1.405       .  A
C75          H80   1.080       .  S
C76          C77   1.404       .  A
C76         C605   1.488       .  S
C77          C78   1.403       .  A
C77          H81   1.080       .  S
C78          C79   1.405       .  A
C78         C426   1.485       .  S
C79          H82   1.084       .  S
C83          C84   1.397       .  A
C83          C88   1.396       .  A
C83         C461   1.478       .  S
C84          C85   1.407       .  A
C84          H89   1.084       .  S
C85          C86   1.411       .  A
C85         C573   1.498       .  S
C86          C87   1.412       .  A
C86          H90   1.077       .  S
C87          C88   1.405       .  A
C87         C410   1.496       .  S
C88          H91   1.084       .  S
C92          C93   1.400       .  A
C92          C97   1.399       .  A
C92         C477   1.478       .  S
C93          C94   1.409       .  A
C93          H98   1.084       .  S
C94          C95   1.408       .  A
C94         C541   1.494       .  S
C95          C96   1.406       .  A
C95          H99   1.081       .  S
C96          C97   1.403       .  A
C96         C394   1.487       .  S
C97         H100   1.084       .  S
O101        V109   1.899       .  S
O101        C111   1.263       .  A
O102        V109   1.901   1_655  S
O102        C112   1.264       .  A
O103        V109   1.897   1_655  S
O103        C113   1.263       .  A
O104        V109   1.898       .  S
O104        C114   1.264       .  A
O105        V110   1.900       .  S
O105        C114   1.265       .  A
O106        V110   1.900   1_655  S
O106        C113   1.264       .  A
O107        V110   1.899   1_655  S
O107        C112   1.264       .  A
O108        V110   1.898       .  S
O108        C111   1.263       .  A
V109        V110   2.087       .  T
C111        C362   1.466       .  S
C112        C346   1.473       .  S
C113        C378   1.468       .  S
C114        C330   1.478       .  S
C115        C116   1.399       .  A
C115        C120   1.400       .  A
C115        C333   1.474       .  S
C116        C117   1.403       .  A
C116        H121   1.084       .  S
C117        C118   1.403       .  A
C117        C490   1.482       .  S
C118        C119   1.407       .  A
C118        H122   1.083       .  S
C119        C120   1.406       .  A
C119        C314   1.490       .  S
C120        H123   1.083       .  S
C124        C125   1.398       .  A
C124        C129   1.399       .  A
C124        C365   1.478       .  S
C125        C126   1.403       .  A
C125        H130   1.082       .  S
C126        C127   1.407       .  A
C126        C413   1.488       .  S
C127        C128   1.408       .  A
C127        H131   1.084       .  S
C128        C129   1.405       .  A
C128        C301   1.487       .  S
C129        H132   1.083       .  S
C133        C134   1.404       .  A
C133        C138   1.403       .  A
C133        C349   1.492       .  S
C134        C135   1.404       .  A
C134        H139   1.083       .  S
C135        C136   1.406       .  A
C135        C429   1.488       .  S
C136        C137   1.406       .  A
C136        H140   1.081       .  S
C137        C138   1.405       .  A
C137        C282   1.490       .  S
C138        H141   1.084       .  S
C142        C143   1.399       .  A
C142        C147   1.398       .  A
C142        C381   1.474       .  S
C143        C144   1.403       .  A
C143        H148   1.084       .  S
C144        C145   1.406       .  A
C144        C397   1.483       .  S
C145        C146   1.406       .  A
C145        H149   1.081       .  S
C146        C147   1.404       .  A
C146        C266   1.487       .  S
C147        H150   1.084       .  S
O151        V159   1.903   1_655  S
O151        C161   1.264       .  A
O152        V159   1.901       .  S
O152        C162   1.265       .  A
O153        V159   1.901   1_655  S
O153        C163   1.264       .  A
O154        V159   1.900       .  S
O154        C164   1.263       .  A
O155        V160   1.901       .  S
O155        C164   1.264       .  A
O156        V160   1.903   1_655  S
O156        C163   1.264       .  A
O157        V160   1.902       .  S
O157        C162   1.265       .  A
O158        V160   1.900   1_655  S
O158        C161   1.263       .  A
V159        V160   2.089       .  T
C161        C250   1.471       .  S
C162        C218   1.482       .  S
C163        C234   1.472       .  S
C164        C202   1.471       .  S
C165        C166   1.404       .  A
C165        C170   1.405       .  A
C165        C205   1.489       .  S
C166        C167   1.403       .  A
C166        H171   1.081       .  S
C167        C168   1.403       .  A
C167        C298   1.484       .  S
C168        C169   1.405       .  A
C168        H172   1.084       .  S
C169        C170   1.405       .  A
C169        C557   1.487       .  S
C170        H173   1.082       .  S
C174        C175   1.399       .  A
C174        C179   1.399       .  A
C174        C221   1.479       .  S
C175        C176   1.404       .  A
C175        H180   1.084       .  S
C176        C177   1.406       .  A
C176        C669   1.486       .  S
C177        C178   1.408       .  A
C177        H181   1.081       .  S
C178        C179   1.408       .  A
C178        C317   1.493       .  S
C179        H182   1.084       .  S
C183        C184   1.400       .  A
C183        C188   1.400       .  A
C183        C237   1.478       .  S
C184        C185   1.403       .  A
C184        H189   1.083       .  S
C185        C186   1.403       .  A
C185        C589   1.484       .  S
C186        C187   1.406       .  A
C186        H190   1.083       .  S
C187        C188   1.405       .  A
C187        C285   1.488       .  S
C188        H191   1.084       .  S
C192        C193   1.400       .  A
C192        C197   1.399       .  A
C192        C253   1.478       .  S
C193        C194   1.403       .  A
C193        H198   1.083       .  S
C194        C195   1.406       .  A
C194        C525   1.486       .  S
C195        C196   1.406       .  A
C195        H199   1.083       .  S
C196        C197   1.404       .  A
C196        C269   1.484       .  S
C197        H200   1.084       .  S
C201        C202   1.400       .  A
C201        C206   1.405       .  A
C201        H208   1.084       .  S
C202        C203   1.409       .  A
C203        C204   1.404       .  A
C203        C210   1.506       .  S
C204        C205   1.407       .  A
C204        H209   1.084       .  S
C205        C206   1.419       .  A
C206        C207   1.509       .  S
C207        H211   1.111       .  S
C207        H212   1.110       .  S
C207        H213   1.106       .  S
C210        H214   1.110       .  S
C210        H215   1.107       .  S
C210        H216   1.111       .  S
C217        C218   1.406       .  A
C217        C222   1.403       .  A
C217        H224   1.084       .  S
C218        C219   1.421       .  A
C219        C220   1.404       .  A
C219        C226   1.508       .  S
C220        C221   1.400       .  A
C220        H225   1.085       .  S
C221        C222   1.411       .  A
C222        C223   1.507       .  S
C223        H227   1.111       .  S
C223        H228   1.111       .  S
C223        H229   1.109       .  S
C226        H230   1.104       .  S
C226        H231   1.111       .  S
C226        H232   1.110       .  S
C233        C234   1.399       .  A
C233        C238   1.402       .  A
C233        H240   1.073       .  S
C234        C235   1.409       .  A
C235        C236   1.404       .  A
C235        C242   1.506       .  S
C236        C237   1.405       .  A
C236        H241   1.084       .  S
C237        C238   1.412       .  A
C238        C239   1.508       .  S
C239        H243   1.111       .  S
C239        H244   1.110       .  S
C239        H245   1.108       .  S
C242        H246   1.111       .  S
C242        H247   1.110       .  S
C242        H248   1.111       .  S
C249        C250   1.402       .  A
C249        C254   1.406       .  A
C249        H256   1.084       .  S
C250        C251   1.408       .  A
C251        C252   1.400       .  A
C251        C258   1.499       .  S
C252        C253   1.401       .  A
C252        H257   1.084       .  S
C253        C254   1.415       .  A
C254        C255   1.507       .  S
C255        H259   1.111       .  S
C255        H260   1.109       .  S
C255        H261   1.110       .  S
C258        H262   1.110       .  S
C258        H263   1.110       .  S
C258        H264   1.111       .  S
C265        C266   1.406   1_556  A
C265        C270   1.403       .  A
C265        H272   1.084       .  S
C266        C267   1.416       .  A
C267        C268   1.404       .  A
C267        C274   1.509       .  S
C268        C269   1.404   1_554  A
C268        H273   1.084       .  S
C269        C270   1.413       .  A
C270        C271   1.508       .  S
C271        H275   1.111       .  S
C271        H276   1.107       .  S
C271        H277   1.111       .  S
C274        H278   1.107       .  S
C274        H279   1.110       .  S
C274        H280   1.111       .  S
C281        C282   1.406       .  A
C281        C286   1.400   1_564  A
C281        H288   1.085       .  S
C282        C283   1.416       .  A
C283        C284   1.404   1_564  A
C283        C290   1.505       .  S
C284        C285   1.406       .  A
C284        H289   1.084       .  S
C285        C286   1.417       .  A
C286        C287   1.509       .  S
C287        H291   1.111   1_545  S
C287        H292   1.110       .  S
C287        H293   1.107       .  S
C290        H294   1.105       .  S
C290        H295   1.110       .  S
C290        H296   1.111   1_554  S
C297        C298   1.403       .  A
C297        C302   1.403       .  A
C297        H304   1.085       .  S
C298        C299   1.415   1_556  A
C299        C300   1.404       .  A
C299        C306   1.508       .  S
C300        C301   1.405       .  A
C300        H305   1.084       .  S
C301        C302   1.418   1_554  A
C302        C303   1.508       .  S
C303        H307   1.111       .  S
C303        H308   1.108   1_556  S
C303        H309   1.110       .  S
C306        H310   1.110   1_554  S
C306        H311   1.107       .  S
C306        H312   1.111       .  S
C313        C314   1.404       .  A
C313        C318   1.402   1_564  A
C313        H320   1.084       .  S
C314        C315   1.418       .  A
C315        C316   1.402   1_564  A
C315        C322   1.509       .  S
C316        C317   1.406       .  A
C316        H321   1.084       .  S
C317        C318   1.418       .  A
C318        C319   1.505       .  S
C319        H323   1.111   1_556  S
C319        H324   1.110       .  S
C319        H325   1.105       .  S
C322        H326   1.107       .  S
C322        H327   1.110       .  S
C322        H328   1.111   1_565  S
C329        C330   1.405       .  A
C329        C334   1.404       .  A
C329        H336   1.083       .  S
C330        C331   1.416       .  A
C331        C332   1.402       .  A
C331        C338   1.508       .  S
C332        C333   1.401       .  A
C332        H337   1.084       .  S
C333        C334   1.409       .  A
C334        C335   1.506       .  S
C335        H339   1.111       .  S
C335        H340   1.111       .  S
C335        H341   1.110       .  S
C338        H342   1.109       .  S
C338        H343   1.110       .  S
C338        H344   1.111       .  S
C345        C346   1.400       .  A
C345        C350   1.402       .  A
C345        H352   1.081       .  S
C346        C347   1.412       .  A
C347        C348   1.402       .  A
C347        C354   1.508       .  S
C348        C349   1.409       .  A
C348        H353   1.084       .  S
C349        C350   1.419       .  A
C350        C351   1.508       .  S
C351        H355   1.111       .  S
C351        H356   1.107       .  S
C351        H357   1.110       .  S
C354        H358   1.107       .  S
C354        H359   1.111       .  S
C354        H360   1.110       .  S
C361        C362   1.402       .  A
C361        C366   1.405       .  A
C361        H368   1.084       .  S
C362        C363   1.408       .  A
C363        C364   1.401       .  A
C363        C370   1.507       .  S
C364        C365   1.404       .  A
C364        H369   1.084       .  S
C365        C366   1.413       .  A
C366        C367   1.506       .  S
C367        H371   1.111       .  S
C367        H372   1.110       .  S
C367        H373   1.109       .  S
C370        H374   1.110       .  S
C370        H375   1.110       .  S
C370        H376   1.111       .  S
C377        C378   1.401       .  A
C377        C382   1.403       .  A
C377        H384   1.084       .  S
C378        C379   1.409       .  A
C379        C380   1.402       .  A
C379        C386   1.503       .  S
C380        C381   1.401       .  A
C380        H385   1.084       .  S
C381        C382   1.412       .  A
C382        C383   1.507       .  S
C383        H387   1.111       .  S
C383        H388   1.109       .  S
C383        H389   1.110       .  S
C386        H390   1.110       .  S
C386        H391   1.107       .  S
C386        H392   1.111       .  S
C393        C394   1.404       .  A
C393        C398   1.403       .  A
C393        H400   1.084       .  S
C394        C395   1.417       .  A
C395        C396   1.402       .  A
C395        C402   1.506       .  S
C396        C397   1.402       .  A
C396        H401   1.085       .  S
C397        C398   1.416       .  A
C398        C399   1.509       .  S
C399        H403   1.111       .  S
C399        H404   1.107       .  S
C399        H405   1.110       .  S
C402        H406   1.110       .  S
C402        H407   1.106       .  S
C402        H408   1.111       .  S
C409        C410   1.408       .  A
C409        C414   1.400       .  A
C409        H416   1.083       .  S
C410        C411   1.419       .  A
C411        C412   1.407       .  A
C411        C418   1.507       .  S
C412        C413   1.405       .  A
C412        H417   1.084       .  S
C413        C414   1.416       .  A
C414        C415   1.512       .  S
C415        H419   1.111       .  S
C415        H420   1.106       .  S
C415        H421   1.110       .  S
C418        H422   1.110       .  S
C418        H423   1.107       .  S
C418        H424   1.111       .  S
C425        C426   1.402       .  A
C425        C430   1.401       .  A
C425        H432   1.084       .  S
C426        C427   1.416       .  A
C427        C428   1.405       .  A
C427        C434   1.508       .  S
C428        C429   1.405       .  A
C428        H433   1.084       .  S
C429        C430   1.416       .  A
C430        C431   1.506       .  S
C431        H435   1.111       .  S
C431        H436   1.110       .  S
C431        H437   1.103       .  S
C434        H438   1.110       .  S
C434        H439   1.107       .  S
C434        H440   1.111       .  S
C441        C442   1.398       .  A
C441        C446   1.401       .  A
C441        H448   1.076       .  S
C442        C443   1.412       .  A
C443        C444   1.404       .  A
C443        C450   1.508       .  S
C444        C445   1.409       .  A
C444        H449   1.084       .  S
C445        C446   1.418       .  A
C446        C447   1.511       .  S
C447        H451   1.111       .  S
C447        H452   1.110       .  S
C447        H453   1.106       .  S
C450        H454   1.107       .  S
C450        H455   1.110       .  S
C450        H456   1.110       .  S
C457        C458   1.400       .  A
C457        C462   1.403       .  A
C457        H464   1.084       .  S
C458        C459   1.409       .  A
C459        C460   1.402       .  A
C459        C466   1.506       .  S
C460        C461   1.404       .  A
C460        H465   1.084       .  S
C461        C462   1.414       .  A
C462        C463   1.508       .  S
C463        H467   1.111       .  S
C463        H468   1.110       .  S
C463        H469   1.108       .  S
C466        H470   1.110       .  S
C466        H471   1.109       .  S
C466        H472   1.111       .  S
C473        C474   1.402       .  A
C473        C478   1.400       .  A
C473        H480   1.084       .  S
C474        C475   1.416       .  A
C475        C476   1.406       .  A
C475        C482   1.507       .  S
C476        C477   1.402       .  A
C476        H481   1.084       .  S
C477        C478   1.412       .  A
C478        C479   1.506       .  S
C479        H483   1.111       .  S
C479        H484   1.111       .  S
C479        H485   1.106       .  S
C482        H486   1.109       .  S
C482        H487   1.109       .  S
C482        H488   1.111       .  S
C489        C490   1.403       .  A
C489        C494   1.403       .  A
C489        H496   1.084       .  S
C490        C491   1.416       .  A
C491        C492   1.403       .  A
C491        C498   1.509       .  S
C492        C493   1.403       .  A
C492        H497   1.084       .  S
C493        C494   1.415       .  A
C494        C495   1.509       .  S
C495        H499   1.111       .  S
C495        H500   1.108       .  S
C495        H501   1.110       .  S
C498        H502   1.108       .  S
C498        H503   1.110       .  S
C498        H504   1.111       .  S
C505        C506   1.402       .  A
C505        C510   1.398       .  A
C505        H512   1.085       .  S
C506        C507   1.415       .  A
C507        C508   1.406       .  A
C507        C514   1.507       .  S
C508        C509   1.402       .  A
C508        H513   1.084       .  S
C509        C510   1.407       .  A
C510        C511   1.500       .  S
C511        H515   1.111       .  S
C511        H516   1.111       .  S
C511        H517   1.109       .  S
C514        H518   1.108       .  S
C514        H519   1.110       .  S
C514        H520   1.111       .  S
C521        C522   1.403       .  A
C521        C526   1.404       .  A
C521        H528   1.084       .  S
C522        C523   1.416       .  A
C523        C524   1.404       .  A
C523        C530   1.509       .  S
C524        C525   1.404       .  A
C524        H529   1.084       .  S
C525        C526   1.416       .  A
C526        C527   1.509       .  S
C527        H531   1.111       .  S
C527        H532   1.107       .  S
C527        H533   1.110       .  S
C530        H534   1.107       .  S
C530        H535   1.110       .  S
C530        H536   1.111       .  S
C537        C538   1.405       .  A
C537        C542   1.407       .  A
C537        H544   1.084       .  S
C538        C539   1.417       .  A
C539        C540   1.402       .  A
C539        C546   1.511       .  S
C540        C541   1.406       .  A
C540        H545   1.084       .  S
C541        C542   1.420       .  A
C542        C543   1.509       .  S
C543        H547   1.111       .  S
C543        H548   1.110       .  S
C543        H549   1.106       .  S
C546        H550   1.110       .  S
C546        H551   1.106       .  S
C546        H552   1.111       .  S
C553        C554   1.404       .  A
C553        C558   1.404       .  A
C553        H560   1.084       .  S
C554        C555   1.414       .  A
C555        C556   1.403       .  A
C555        C562   1.509       .  S
C556        C557   1.405       .  A
C556        H561   1.084       .  S
C557        C558   1.417       .  A
C558        C559   1.509       .  S
C559        H563   1.111       .  S
C559        H564   1.110       .  S
C559        H565   1.106       .  S
C562        H566   1.110       .  S
C562        H567   1.107       .  S
C562        H568   1.111       .  S
C569        C570   1.407       .  A
C569        C574   1.408       .  A
C569        H576   1.084       .  S
C570        C571   1.415       .  A
C571        C572   1.401       .  A
C571        C578   1.511       .  S
C572        C573   1.408       .  A
C572        H577   1.084       .  S
C573        C574   1.419       .  A
C574        C575   1.508       .  S
C575        H579   1.111       .  S
C575        H580   1.106       .  S
C575        H581   1.110       .  S
C578        H582   1.106       .  S
C578        H583   1.111       .  S
C578        H584   1.111       .  S
C585        C586   1.403       .  A
C585        C590   1.402       .  A
C585        H592   1.084       .  S
C586        C587   1.415       .  A
C587        C588   1.403       .  A
C587        C594   1.509       .  S
C588        C589   1.404       .  A
C588        H593   1.084       .  S
C589        C590   1.416       .  A
C590        C591   1.509       .  S
C591        H595   1.111       .  S
C591        H596   1.110       .  S
C591        H597   1.107       .  S
C594        H598   1.110       .  S
C594        H599   1.107       .  S
C594        H600   1.111       .  S
C601        C602   1.404       .  A
C601        C606   1.404       .  A
C601        H608   1.084       .  S
C602        C603   1.416   1_545  A
C603        C604   1.403       .  A
C603        C610   1.509       .  S
C604        C605   1.405       .  A
C604        H609   1.084       .  S
C605        C606   1.417   1_565  A
C606        C607   1.509       .  S
C607        H611   1.111       .  S
C607        H612   1.110       .  S
C607        H613   1.106       .  S
C610        H614   1.110       .  S
C610        H615   1.106       .  S
C610        H616   1.111       .  S
C617        C618   1.401       .  A
C617        C622   1.403       .  A
C617        H624   1.081       .  S
C618        C619   1.413       .  A
C619        C620   1.406       .  A
C619        C626   1.505       .  S
C620        C621   1.401       .  A
C620        H625   1.084       .  S
C621        C622   1.412       .  A
C622        C623   1.507       .  S
C623        H627   1.111       .  S
C623        H628   1.110       .  S
C623        H629   1.110       .  S
C626        H630   1.106       .  S
C626        H631   1.109       .  S
C626        H632   1.111       .  S
C633        C634   1.400       .  A
C633        C638   1.405       .  A
C633        H640   1.084       .  S
C634        C635   1.408       .  A
C635        C636   1.402       .  A
C635        C642   1.504       .  S
C636        C637   1.405       .  A
C636        H641   1.084       .  S
C637        C638   1.418       .  A
C638        C639   1.508       .  S
C639        H643   1.111       .  S
C639        H644   1.110       .  S
C639        H645   1.107       .  S
C642        H646   1.109       .  S
C642        H647   1.110       .  S
C642        H648   1.111       .  S
C649        C650   1.403       .  A
C649        C654   1.407       .  A
C649        H656   1.084       .  S
C650        C651   1.409       .  A
C651        C652   1.401       .  A
C651        C658   1.504       .  S
C652        C653   1.403       .  A
C652        H657   1.085       .  S
C653        C654   1.412       .  A
C654        C655   1.505       .  S
C655        H659   1.111       .  S
C655        H660   1.109       .  S
C655        H661   1.110       .  S
C658        H662   1.110       .  S
C658        H663   1.110       .  S
C658        H664   1.111       .  S
C665        C666   1.403       .  A
C665        C670   1.404       .  A
C665        H672   1.084       .  S
C666        C667   1.417       .  A
C667        C668   1.403       .  A
C667        C674   1.506       .  S
C668        C669   1.402       .  A
C668        H673   1.084       .  S
C669        C670   1.416       .  A
C670        C671   1.505       .  S
C671        H675   1.111       .  S
C671        H676   1.102       .  S
C671        H677   1.110       .  S
C674        H678   1.103       .  S
C674        H679   1.110       .  S
C674        H680   1.111       .  S
C681        C682   1.403       .  A
C681        C686   1.403   1_565  A
C681        H688   1.084       .  S
C682        C683   1.417       .  A
C683        C684   1.404   1_565  A
C683        C690   1.510       .  S
C684        C685   1.407       .  A
C684        H689   1.084       .  S
C685        C686   1.418       .  A
C686        C687   1.504       .  S
C687        H691   1.111       .  S
C687        H692   1.110       .  S
C687        H693   1.107       .  S
C690        H694   1.110       .  S
C690        H695   1.106       .  S
C690        H696   1.111   1_565  S
C697        C698   1.411       .  A
C697        C702   1.405       .  A
C697        H704   1.083       .  S
C698        C699   1.422       .  A
C699        C700   1.403       .  A
C699        C706   1.510       .  S
C700        C701   1.400       .  A
C700        H705   1.081       .  S
C701        C702   1.414       .  A
C702        C703   1.508       .  S
C703        H707   1.111       .  S
C703        H708   1.110       .  S
C703        H709   1.105       .  S
C706        H710   1.107       .  S
C706        H711   1.110       .  S
C706        H712   1.111       .  S
