geometry optimzed in LAMMPS
_audit_creation_date              2020-11-30 
_audit_creation_method            'lammps2cif' 
_symmetry_space_group_name_H-M    'P1' 
_symmetry_Int_Tables_number       1 
_symmetry_cell_setting            triclinic 
loop_ 
_symmetry_equiv_pos_as_xyz 
  x,y,z 
_cell_length_a                    41.45819331 
_cell_length_b                    41.827470697324216 
_cell_length_c                    31.71391723478451 
_cell_angle_alpha                 90.10728033990347 
_cell_angle_beta                  90.02412493997139 
_cell_angle_gamma                 89.97973084741014 
loop_ 
_atom_site_label 
_atom_site_type_symbol 
_atom_site_fract_x 
_atom_site_fract_y 
_atom_site_fract_z 
_atom_site_charge 
In1        In  0.78076328  0.24982392  0.26265250     1.36900
C2          C  0.73757271  0.21233090  0.22517190     0.78700
O3          O  0.81280828  0.20699999  0.26724307    -0.59700
O4          O  0.81399894  0.24085686  0.31718987    -0.50600
C5          C  0.81686450  0.28799486  0.21494908     0.71400
O6          O  0.80897061  0.26020565  0.20383504    -0.45500
C7          C  0.73881631  0.28196002  0.30955129     0.76100
O8          O  0.74984696  0.23636443  0.20745112    -0.57300
O9          O  0.75860688  0.26244078  0.32508254    -0.47400
O10         O  0.74763743  0.20720819  0.26200763    -0.53800
C11         C  0.82357411  0.21433155  0.30317608     0.86300
O12         O  0.80717534  0.29598525  0.25113091    -0.55700
O13         O  0.74098979  0.28555969  0.27019289    -0.58900
In14       In  0.22825434  0.25432717  0.25398740     1.36900
C15         C  0.27064543  0.22520948  0.30437592     0.78700
O16         O  0.20507842  0.20650663  0.24257993    -0.59700
O17         O  0.19039479  0.24548117  0.20447724    -0.50600
C18         C  0.18840370  0.29164333  0.29740579     0.71400
O19         O  0.19170726  0.26227100  0.30491378    -0.45500
C20         C  0.26827185  0.28427595  0.20163145     0.76100
O21         O  0.25142707  0.24623723  0.31752135    -0.57300
O22         O  0.25257284  0.25974639  0.19131250    -0.47400
O23         O  0.26816862  0.21910818  0.26560324    -0.53800
C24         C  0.18777950  0.21612184  0.21244632     0.86300
O25         O  0.20476315  0.30184027  0.26667830    -0.55700
O26         O  0.26330100  0.29390730  0.23877897    -0.58900
C27         C  0.13961833  0.39053055  0.41685903     0.87700
C28         C  0.14752478  0.36052893  0.39017391    -0.52600
C29         C  0.15143358  0.36670584  0.34799675     0.10600
C30         C  0.14671220  0.40201845  0.33650916     0.21500
C31         C  0.16729432  0.41379482  0.40649678    -0.53300
C32         C  0.17126398  0.41963879  0.36460918     0.10700
C33         C  0.10970911  0.40506369  0.39600978    -0.52800
C34         C  0.11346331  0.41114983  0.35424177     0.11200
H35         H  0.15249325  0.33729084  0.40343191     0.15800
H36         H  0.14900972  0.40705507  0.30230849     0.01500
H37         H  0.18299865  0.42411987  0.43034666     0.16100
H38         H  0.08777806  0.41090656  0.41313485     0.15900
C39         C  0.14251365  0.11257954  0.09817638     0.87700
C40         C  0.14870162  0.14379592  0.12308920    -0.52600
C41         C  0.15168762  0.13926945  0.16582859     0.10600
C42         C  0.14752643  0.10426450  0.17953356     0.21500
C43         C  0.17041530  0.09055745  0.11151526    -0.53300
C44         C  0.17327394  0.08618130  0.15386148     0.10700
C45         C  0.11239054  0.09814237  0.11851136    -0.52800
C46         C  0.11506251  0.09360047  0.16072304     0.11200
H47         H  0.15297303  0.16671437  0.10849446     0.15800
H48         H  0.14887471  0.10070670  0.21411504     0.01500
H49         H  0.18681229  0.07951020  0.08906383     0.16100
H50         H  0.09116932  0.09098519  0.10070694     0.15900
C51         C  0.86118446  0.10522221  0.40966268     0.87700
C52         C  0.85815349  0.13784529  0.38783988    -0.52600
C53         C  0.85810287  0.13609576  0.34464851     0.10600
C54         C  0.86173031  0.10199946  0.32750518     0.21500
C55         C  0.83356615  0.08489117  0.39074283    -0.53300
C56         C  0.83381106  0.08358889  0.34758069     0.10700
C57         C  0.89185111  0.08986729  0.39110032    -0.52800
C58         C  0.89201808  0.08846214  0.34834681     0.11200
H59         H  0.85415216  0.15973329  0.40544351     0.15800
H60         H  0.86211963  0.10051686  0.29249725     0.01500
H61         H  0.81609615  0.07216407  0.40975384     0.16100
H62         H  0.91111966  0.07955868  0.40987291     0.15900
C63         C  0.86143603  0.39295186  0.10230926     0.87700
C64         C  0.85493943  0.36143068  0.12555093    -0.52600
C65         C  0.85416812  0.36440992  0.16862257     0.10600
C66         C  0.86072999  0.39858111  0.18427454     0.21500
C67         C  0.83551091  0.41626368  0.11925733    -0.53300
C68         C  0.83486261  0.41873437  0.16232211     0.10700
C69         C  0.89304821  0.40598156  0.12116877    -0.52800
C70         C  0.89258818  0.40890617  0.16382707     0.11200
H71         H  0.84940109  0.33949366  0.10879308     0.15800
H72         H  0.86058313  0.40104977  0.21918180     0.01500
H73         H  0.81933219  0.42943249  0.09888061     0.16100
H74         H  0.91326656  0.41440079  0.10251338     0.15900
In75       In  0.00175895  0.99982896  0.24664453     1.36900
C76         C  0.96204274  0.46292772  0.22054714     0.78700
O77         O  0.04010256  0.46249450  0.25337646    -0.59700
O78         O  0.02930289  0.48385860  0.31267678    -0.50600
C79         C  0.04454840  0.04044967  0.21539723     0.71400
O80         O  0.03139394  0.01909004  0.19315245    -0.45500
C81         C  0.96062391  0.03752621  0.28604681     0.76100
O82         O  0.97673147  0.48381755  0.19929098    -0.57300
O83         O  0.97862806  0.01825641  0.30557886    -0.47400
O84         O  0.96922137  0.46213728  0.25909190    -0.53800
C85         C  0.04534885  0.46330643  0.29246572     0.86300
O86         O  0.03514913  0.04176450  0.25306525    -0.55700
O87         O  0.96408326  0.03804577  0.24659209    -0.58900
In88       In  0.78349149  0.25807599  0.73655772     1.36900
C89         C  0.74359653  0.22958583  0.79094930     0.78700
O90         O  0.74302161  0.29253236  0.72454366    -0.59700
O91         O  0.75815980  0.26280429  0.67395062    -0.50600
C92         C  0.81966215  0.30491353  0.76938796     0.71400
O93         O  0.81888019  0.27716973  0.78477271    -0.45500
C94         C  0.82269032  0.21588827  0.69845584     0.76100
O95         O  0.76701362  0.24658282  0.80277517    -0.57300
O96         O  0.81859018  0.24397468  0.68540639    -0.47400
O97         O  0.74085899  0.22697341  0.75152761    -0.53800
C98         C  0.73912197  0.28432274  0.68656002     0.86300
O99         O  0.80326257  0.30821400  0.73632793    -0.55700
O100        O  0.80780932  0.20962006  0.73202744    -0.58900
In101      In  0.23389206  0.24140141  0.74588362     1.36900
C102        C  0.27080514  0.20488696  0.69726955     0.78700
O103        O  0.27570983  0.27517297  0.75411667    -0.59700
O104        O  0.23893523  0.27441320  0.80070770    -0.50600
C105        C  0.19726870  0.28061284  0.70131973     0.71400
O106        O  0.22042913  0.26518707  0.68589550    -0.45500
C107        C  0.20656793  0.19835937  0.79577891     0.76100
O108        O  0.24178702  0.21093294  0.68860555    -0.57300
O109        O  0.23301546  0.21159887  0.80397566    -0.47400
O110        O  0.28073296  0.21673176  0.73156293    -0.53800
C111        C  0.26541167  0.28591441  0.78880394     0.86300
O112        O  0.19171392  0.27519089  0.73969292    -0.55700
O113        O  0.19403019  0.20646636  0.76117314    -0.58900
C114        C  0.13898627  0.38334536  0.60143132     0.87700
C115        C  0.10937153  0.39731549  0.62367534    -0.52600
C116        C  0.11269403  0.39964677  0.66621468     0.10600
C117        C  0.14507416  0.38751580  0.68325874     0.21500
C118        C  0.16746675  0.40446709  0.61616155    -0.53300
C119        C  0.17045122  0.40691784  0.65908548     0.10700
C120        C  0.14480445  0.35110036  0.62337303    -0.52800
C121        C  0.14869558  0.35335717  0.66607377     0.11200
H122        H  0.08826949  0.40611740  0.60698499     0.15800
H123        H  0.14743274  0.38935186  0.71809518     0.01500
H124        H  0.18342922  0.41636070  0.59413953     0.16100
H125        H  0.14684047  0.32847454  0.60721234     0.15900
C126        C  0.14536032  0.10738052  0.91329745     0.87700
C127        C  0.11464815  0.09374706  0.89313595    -0.52600
C128        C  0.11737679  0.08810889  0.85109924     0.10600
C129        C  0.15019873  0.09692640  0.83229650     0.21500
C130        C  0.17224067  0.08353448  0.90106755    -0.53300
C131        C  0.17498300  0.07810041  0.85871434     0.10700
C132        C  0.15323144  0.13748509  0.88724849    -0.52800
C133        C  0.15599981  0.13180469  0.84492995     0.11200
H134        H  0.09307680  0.08782663  0.91094043     0.15800
H135        H  0.15120742  0.09283169  0.79781403     0.01500
H136        H  0.18797809  0.07221975  0.92402425     0.16100
H137        H  0.15756190  0.16101049  0.90023923     0.15900
C138        C  0.86326156  0.10450811  0.59507618     0.87700
C139        C  0.89502453  0.09170571  0.61367148    -0.52600
C140        C  0.89535026  0.09032324  0.65645417     0.10600
C141        C  0.86385934  0.10167253  0.67731591     0.21500
C142        C  0.83744125  0.08210940  0.61384995    -0.53300
C143        C  0.83746399  0.08097353  0.65703192     0.10700
C144        C  0.85753084  0.13682024  0.61679408    -0.52800
C145        C  0.85744934  0.13546641  0.65997944     0.11200
H146        H  0.91487338  0.08250292  0.59492373     0.15800
H147        H  0.86422249  0.10039450  0.71231599     0.01500
H148        H  0.82099501  0.06839243  0.59441883     0.16100
H149        H  0.85172843  0.15817163  0.59899470     0.15900
C150        C  0.86307827  0.39090363  0.91690656     0.87700
C151        C  0.89454454  0.40453106  0.89855418    -0.52600
C152        C  0.89519139  0.40526327  0.85572838     0.10600
C153        C  0.86438243  0.39256606  0.83461507     0.21500
C154        C  0.83654797  0.41213840  0.89699343    -0.53300
C155        C  0.83714412  0.41274680  0.85379452     0.10700
C156        C  0.85891816  0.35808955  0.89591443    -0.52800
C157        C  0.85896638  0.35881086  0.85286886     0.11200
H158        H  0.91395166  0.41442927  0.91752429     0.15800
H159        H  0.86547973  0.39376408  0.79971300     0.01500
H160        H  0.81895685  0.42524383  0.91543624     0.16100
H161        H  0.85438255  0.33638524  0.91372831     0.15900
In162      In  0.00772572  0.99877096  0.74972268     1.36900
C163        C  0.04801492  0.45610018  0.72645083     0.78700
O164        O  0.04659372  0.03588420  0.74890033    -0.59700
O165        O  0.03103394  0.01772921  0.80828926    -0.50600
C166        C  0.96713908  0.03941891  0.71312911     0.71400
O167        O  0.98108751  0.01742004  0.69284350    -0.45500
C168        C  0.96479898  0.45722977  0.79651306     0.76100
O169        O  0.03217995  0.47539443  0.70401324    -0.57300
O170        O  0.97904404  0.47936113  0.81616675    -0.47400
O171        O  0.04249117  0.45744615  0.76544133    -0.53800
C172        C  0.04960015  0.03622055  0.78843652     0.86300
O173        O  0.97488843  0.04147571  0.75138628    -0.55700
O174        O  0.97189762  0.45486816  0.75806619    -0.58900
In175      In  0.27685954  0.00223545  0.25601401     1.36900
C176        C  0.23296133  0.04335523  0.22754506     0.78700
O177        O  0.24542346  0.45627718  0.25664181    -0.59700
O178        O  0.25222269  0.47617936  0.31771480    -0.50600
C179        C  0.32236814  0.45209663  0.23003179     0.71400
O180        O  0.31028332  0.47474401  0.20887866    -0.45500
C181        C  0.31743442  0.03794580  0.30082426     0.76100
O182        O  0.25001116  0.02629354  0.20345879    -0.57300
O183        O  0.30516659  0.01262575  0.31513396    -0.47400
O184        O  0.23891904  0.03999023  0.26619740    -0.53800
C185        C  0.23679750  0.45681512  0.29468877     0.86300
O186        O  0.31564566  0.45270519  0.26874479    -0.55700
O187        O  0.31018631  0.04401053  0.26308379    -0.58900
In188      In  0.72263217  0.50406817  0.24560081     1.36900
C189        C  0.75981440  0.03802286  0.30647707     0.78700
O190        O  0.76278203  0.46860198  0.23723673    -0.59700
O191        O  0.74167777  0.48870202  0.18242726    -0.50600
C192        C  0.68614306  0.46617951  0.29400462     0.71400
O193        O  0.69486516  0.49370895  0.30542108    -0.45500
C194        C  0.68740014  0.04396068  0.20576746     0.76100
O195        O  0.73462897  0.02456343  0.31969291    -0.57300
O196        O  0.69004499  0.01445020  0.19888559    -0.47400
O197        O  0.76464110  0.03535902  0.26735264    -0.53800
C198        C  0.76290186  0.47052382  0.19756970     0.86300
O199        O  0.69530391  0.45844853  0.25751547    -0.55700
O200        O  0.70038707  0.05313594  0.23954589    -0.58900
C201        C  0.65511012  0.14907968  0.08341458     0.87700
C202        C  0.62287109  0.16186700  0.10026022    -0.52600
C203        C  0.62214341  0.16590448  0.14278605     0.10600
C204        C  0.65362497  0.15661918  0.16522186     0.21500
C205        C  0.68068288  0.17234395  0.10058027    -0.57700
C206        C  0.68013487  0.17617081  0.14320494     0.10700
C207        C  0.66109675  0.11785262  0.10862764    -0.52800
C208        C  0.66036345  0.12200549  0.15162222     0.11200
H209        H  0.60264061  0.16804121  0.08004905     0.15800
H210        H  0.65249391  0.16008127  0.19990222     0.01500
H211        H  0.69813361  0.18442776  0.08063033     0.16100
H212        H  0.66744309  0.09519352  0.09444914     0.15900
C213        C  0.35597617  0.35745916  0.08668827     0.87700
C214        C  0.38744058  0.34356471  0.10409140    -0.52600
C215        C  0.38984635  0.34475073  0.14679490     0.10600
C216        C  0.36066073  0.36021857  0.16886139     0.21500
C217        C  0.32902150  0.33933948  0.11048369    -0.53300
C218        C  0.33178779  0.34049844  0.15344644     0.10700
C219        C  0.35405854  0.39153565  0.10475310    -0.52800
C220        C  0.35591600  0.39328444  0.14774191     0.11200
H221        H  0.40558044  0.33225219  0.08432726     0.15800
H222        H  0.36305834  0.36049293  0.20365950     0.01500
H223        H  0.30868592  0.32786012  0.09554101     0.16100
H224        H  0.34933833  0.41232507  0.08520335     0.15900
C225        C  0.36745772  0.14696423  0.40274020     0.87700
C226        C  0.39830910  0.15914974  0.38070265    -0.52600
C227        C  0.39624144  0.15964192  0.33801521     0.10600
C228        C  0.36383368  0.14826234  0.32059846     0.21500
C229        C  0.34067054  0.16911970  0.38555822    -0.53300
C230        C  0.33880424  0.16964130  0.34236835     0.10700
C231        C  0.36050035  0.11423555  0.38250336    -0.52800
C232        C  0.35825600  0.11493582  0.33942687     0.11200
H233        H  0.41919845  0.16907256  0.39646921     0.15800
H234        H  0.36246456  0.14894579  0.28560086     0.01500
H235        H  0.32467132  0.18261157  0.40595552     0.16100
H236        H  0.35629158  0.09301344  0.40127382     0.15900
C237        C  0.63743192  0.35829632  0.40088153     0.87700
C238        C  0.60699163  0.34526757  0.37857287    -0.52600
C239        C  0.60959788  0.34386199  0.33594460     0.10600
C240        C  0.64204954  0.35537455  0.31884865     0.21500
C241        C  0.66462945  0.33625270  0.38486499    -0.53300
C242        C  0.66718856  0.33497461  0.34185784     0.10700
C243        C  0.64419092  0.39079433  0.37977648    -0.52800
C244        C  0.64690993  0.38920331  0.33667585     0.11200
H245        H  0.58597326  0.33555230  0.39419217     0.15800
H246        H  0.64389075  0.35390879  0.28392712     0.01500
H247        H  0.68037455  0.32327776  0.40609070     0.16100
H248        H  0.64785106  0.41249822  0.39788820     0.15900
In249      In  0.50321138  0.25057346  0.23490900     1.36900
C250        C  0.54713476  0.21299241  0.19863085     0.78700
O251        O  0.54034812  0.28957560  0.23210042    -0.59700
O252        O  0.52612935  0.27199530  0.29227994    -0.50600
C253        C  0.45993297  0.29016756  0.20136548     0.71400
O254        O  0.47353894  0.26850220  0.18008941    -0.45500
C255        C  0.46317226  0.21048374  0.27287447     0.76100
O256        O  0.53044124  0.23269560  0.17791942    -0.57300
O257        O  0.48150328  0.22903572  0.29302177    -0.47400
O258        O  0.54079195  0.21178035  0.23738237    -0.53800
C259        C  0.54363505  0.29093974  0.27156489     0.86300
O260        O  0.46856850  0.29177899  0.23932113    -0.55700
O261        O  0.46560197  0.21189385  0.23334863    -0.58900
In262      In  0.28053746  0.50029397  0.73300993     1.36900
C263        C  0.23947354  0.46514775  0.68810132     0.78700
O264        O  0.31627623  0.46026893  0.72386750    -0.59700
O265        O  0.30321395  0.47341990  0.78626328    -0.50600
C266        C  0.31688306  0.04152722  0.71967774     0.71400
O267        O  0.30254744  0.02229652  0.69511270    -0.45500
C268        C  0.23293913  0.03494603  0.78249239     0.76100
O269        O  0.25962012  0.48377136  0.67112732    -0.57300
O270        O  0.25079887  0.01693499  0.80448922    -0.47400
O271        O  0.24070687  0.46430904  0.72784000    -0.53800
C272        C  0.31910587  0.45481139  0.76275065     0.86300
O273        O  0.31132552  0.03716312  0.75829818    -0.55700
O274        O  0.23775781  0.03356303  0.74327943    -0.58900
In275      In  0.72216075  0.00158870  0.74373190     1.36900
C276        C  0.76802308  0.46557466  0.81131713     0.78700
O277        O  0.70373843  0.44182058  0.76232669    -0.59700
O278        O  0.69080462  0.47097324  0.71050840    -0.50600
C279        C  0.68375235  0.04313607  0.78305022     0.71400
O280        O  0.68303098  0.01361309  0.79046161    -0.45500
C281        C  0.76483246  0.03137290  0.69508693     0.76100
O282        O  0.74873739  0.48711997  0.82312910    -0.57300
O283        O  0.74138319  0.01584561  0.68035384    -0.47400
O284        O  0.76518752  0.45752941  0.77312677    -0.53800
C285        C  0.68845935  0.44412537  0.72824105     0.86300
O286        O  0.70293166  0.05117228  0.75422786    -0.55700
O287        O  0.76645139  0.03179301  0.73476922    -0.58900
C288        C  0.35595529  0.35671191  0.90054579     0.87700
C289        C  0.35117001  0.39075728  0.88388797    -0.52600
C290        C  0.35250075  0.39349543  0.84105371     0.10600
C291        C  0.35921334  0.36139790  0.81836270     0.21500
C292        C  0.33035279  0.33682888  0.87657962    -0.53300
C293        C  0.33215296  0.33937839  0.83362268     0.10700
C294        C  0.38817245  0.34551659  0.88182739    -0.52800
C295        C  0.38972544  0.34759592  0.83901347     0.11200
H296        H  0.34535874  0.41080415  0.90437659     0.15800
H297        H  0.36086074  0.36264517  0.78351625     0.01500
H298        H  0.31306582  0.32116130  0.89128952     0.16100
H299        H  0.40718347  0.33473042  0.90063397     0.15900
C300        C  0.36914749  0.13871629  0.58855296     0.87700
C301        C  0.36144666  0.10482345  0.60357162    -0.52600
C302        C  0.35925816  0.10158933  0.64626138     0.10600
C303        C  0.36637413  0.13301854  0.67056006     0.21500
C304        C  0.34325889  0.15993990  0.60965595    -0.53300
C305        C  0.34189030  0.15682526  0.65264153     0.10700
C306        C  0.40054665  0.14800443  0.61162682    -0.52800
C307        C  0.39896019  0.14542664  0.65426982     0.11200
H308        H  0.35584887  0.08544920  0.58188970     0.15800
H309        H  0.36547092  0.13123914  0.70540685     0.01500
H310        H  0.32810473  0.17642568  0.59217504     0.16100
H311        H  0.42082614  0.15992953  0.59699589     0.15900
C312        C  0.63779726  0.35609435  0.58700857     0.87700
C313        C  0.64269866  0.38926086  0.60677329    -0.52600
C314        C  0.64502563  0.38922741  0.64968331     0.10600
C315        C  0.64096943  0.35571709  0.66931299     0.21500
C316        C  0.66570218  0.33561170  0.60487453    -0.53300
C317        C  0.66740788  0.33558634  0.64812051     0.10700
C318        C  0.60757709  0.34243835  0.60880195    -0.52800
C319        C  0.60923530  0.34241624  0.65150902     0.11200
H320        H  0.64615093  0.41072143  0.58805205     0.15800
H321        H  0.64173894  0.35501150  0.70425017     0.01500
H322        H  0.68277545  0.32312903  0.58485274     0.16100
H323        H  0.58731645  0.33149546  0.59277630     0.15900
C324        C  0.65272187  0.15055683  0.89725125     0.87700
C325        C  0.65811974  0.11928784  0.87225479    -0.52600
C326        C  0.65542014  0.12268162  0.82951158     0.10600
C327        C  0.64751436  0.15688941  0.81557378     0.21500
C328        C  0.67728582  0.17405166  0.87773043    -0.53300
C329        C  0.67455703  0.17732558  0.83484542     0.10700
C330        C  0.61961185  0.16274860  0.88256467    -0.52800
C331        C  0.61699365  0.16613681  0.84006618     0.11200
H332        H  0.66632573  0.09712959  0.88603936     0.15800
H333        H  0.64512163  0.15956970  0.78084400     0.01500
H334        H  0.69532874  0.18631560  0.89648441     0.16100
H335        H  0.60022027  0.16900186  0.90409994     0.15900
In336      In  0.49871439  0.25055442  0.74795803     1.36900
C337        C  0.46003338  0.20626583  0.71495452     0.78700
O338        O  0.53920197  0.21504872  0.74570948    -0.59700
O339        O  0.52180641  0.22940998  0.80591378    -0.50600
C340        C  0.53997597  0.29098386  0.71222955     0.71400
O341        O  0.52327488  0.27155448  0.69095765    -0.45500
C342        C  0.45667931  0.29180064  0.78052391     0.76100
O343        O  0.47648519  0.22503549  0.69245973    -0.57300
O344        O  0.47614777  0.27607792  0.80293143    -0.47400
O345        O  0.46288612  0.21040696  0.75412383    -0.53800
C346        C  0.54172047  0.21288671  0.78513568     0.86300
O347        O  0.53502875  0.29036007  0.75134687    -0.55700
O348        O  0.45827464  0.28623265  0.74151146    -0.58900
C349        C  0.58887162  0.18003729  0.82052288    -0.12100
C350        C  0.56642562  0.19393774  0.80471724    -0.13700
C351        C  0.58459449  0.32700075  0.67643452    -0.12100
C352        C  0.56374636  0.31158189  0.69350408    -0.13700
C353        C  0.42137582  0.16332901  0.68010842    -0.12100
C354        C  0.43934485  0.18205418  0.69721410    -0.13700
C355        C  0.43410421  0.31415837  0.79838498    -0.12100
C356        C  0.41455395  0.33118271  0.81551340    -0.13700
C357        C  0.66562969  0.09774633  0.79904357    -0.15300
C358        C  0.66547181  0.06642544  0.80834490    -0.30400
H359        H  0.67563500  0.10575695  0.76922167     0.13800
H360        H  0.65404143  0.05795852  0.83702029     0.14300
C361        C  0.65618228  0.41823006  0.67251975    -0.15300
C362        C  0.67077651  0.41677944  0.71026375    -0.30400
H363        H  0.65581251  0.44082852  0.65564717     0.13800
H364        H  0.67259203  0.39432695  0.72706933     0.14300
C365        C  0.33783154  0.42753395  0.77918465    -0.15300
C366        C  0.34204620  0.42377052  0.82082998    -0.30400
H367        H  0.34560974  0.40938782  0.75699084     0.13800
H368        H  0.33444900  0.44295859  0.84178271     0.14300
C369        C  0.33734001  0.06821634  0.70503032    -0.15300
C370        C  0.34461618  0.07206576  0.66415013    -0.30400
H371        H  0.34475456  0.08574683  0.72826516     0.13800
H372        H  0.33712047  0.05366430  0.64195290     0.14300
C373        C  0.60773798  0.35500212  0.47204414    -0.12200
C374        C  0.63632593  0.36001670  0.44909064     0.10000
C375        C  0.66474695  0.36642319  0.47197627    -0.12200
C376        C  0.66502179  0.36520480  0.51614127    -0.12200
C377        C  0.63685634  0.35766651  0.53883684     0.10000
C378        C  0.60799523  0.35387892  0.51595021    -0.12200
H379        H  0.58463153  0.35251816  0.45686206     0.14000
H380        H  0.68701986  0.37162848  0.45553294     0.14000
H381        H  0.68741690  0.36980873  0.53265718     0.14000
H382        H  0.58501382  0.35088981  0.53127887     0.14000
C383        C  0.56617716  0.31204872  0.29163013    -0.12100
C384        C  0.58573822  0.32792292  0.31041404    -0.13700
C385        C  0.39748935  0.14815982  0.47365670    -0.12200
C386        C  0.36849801  0.14515847  0.45087500     0.10000
C387        C  0.34013078  0.13848741  0.47362850    -0.12200
C388        C  0.34055464  0.13657838  0.51773190    -0.12200
C389        C  0.36937561  0.14116172  0.54048154     0.10000
C390        C  0.39791983  0.14621899  0.51747028    -0.12200
H391        H  0.42049299  0.15086666  0.45833122     0.14000
H392        H  0.31753798  0.13479834  0.45717251     0.14000
H393        H  0.31827022  0.13150120  0.53422220     0.14000
H394        H  0.42120023  0.14764919  0.53242658     0.14000
C395        C  0.42062004  0.17468772  0.31253321    -0.12100
C396        C  0.44052045  0.18992525  0.29356355    -0.13700
C397        C  0.37718060  0.37502490  0.01556440    -0.12200
C398        C  0.35511375  0.35636551  0.03852643     0.10000
C399        C  0.33411248  0.33625926  0.01578074    -0.12200
C400        C  0.33421690  0.33586874  0.97178825    -0.12200
C401        C  0.35553833  0.35537343  0.94873549     0.10000
C402        C  0.37736818  0.37455530  0.97147921    -0.12200
H403        H  0.39431475  0.39016669  0.03190601     0.14000
H404        H  0.31778008  0.32001930  0.03113247     0.14000
H405        H  0.31753103  0.31976446  0.95681413     0.14000
H406        H  0.39450555  0.38950767  0.95493096     0.14000
C407        C  0.41526753  0.32788943  0.16859445    -0.12100
C408        C  0.43599790  0.31127557  0.18393445    -0.13700
C409        C  0.65824258  0.11933963  0.01195438    -0.12200
C410        C  0.65552075  0.14786804  0.03523063     0.10000
C411        C  0.65230510  0.17673379  0.01280245    -0.12200
C412        C  0.65207639  0.17716745  0.96879212    -0.12200
C413        C  0.65485545  0.14873692  0.94538152     0.10000
C414        C  0.65781486  0.11974470  0.96779597    -0.12200
H415        H  0.65996975  0.09639503  0.02720898     0.14000
H416        H  0.64979944  0.19918014  0.02958008     0.14000
H417        H  0.64931504  0.19988409  0.95284171     0.14000
H418        H  0.65896651  0.09694454  0.95205358     0.14000
C419        C  0.59480587  0.18019705  0.16387118    -0.12100
C420        C  0.57240536  0.19415965  0.17984221    -0.13700
C421        C  0.67210676  0.06605200  0.17538714    -0.15300
C422        C  0.66999934  0.09758440  0.18329682    -0.30400
H423        H  0.66435740  0.05641443  0.14526644     0.13800
H424        H  0.67689889  0.10643124  0.21424751     0.14300
C425        C  0.66821229  0.44429079  0.32208662    -0.15300
C426        C  0.65831755  0.41538703  0.30862602    -0.30400
H427        H  0.66538085  0.45131953  0.35478114     0.13800
H428        H  0.66131942  0.40935955  0.27551993     0.14300
C429        C  0.33684631  0.05972273  0.32717774    -0.15300
C430        C  0.34647139  0.08830434  0.31244743    -0.30400
H431        H  0.34024512  0.05331358  0.35996250     0.13800
H432        H  0.34259991  0.09383287  0.27936744     0.14300
C433        C  0.34687215  0.42352570  0.16977582    -0.15300
C434        C  0.34068967  0.42527663  0.21128882    -0.30400
H435        H  0.34140569  0.44416104  0.15023909     0.13800
H436        H  0.34581173  0.40521707  0.23175215     0.14300
C437        C  0.81349076  0.42949900  0.82636392    -0.15300
C438        C  0.79164226  0.45084124  0.84021785    -0.30400
H439        H  0.81426933  0.42379397  0.79296774     0.13800
H440        H  0.79083771  0.45781685  0.87311224     0.14300
C441        C  0.94149894  0.43669287  0.81616664    -0.12100
C442        C  0.92080801  0.42106110  0.83313276    -0.13700
C443        C  0.81419610  0.06276104  0.68327575    -0.15300
C444        C  0.78811337  0.04777783  0.66765011    -0.30400
H445        H  0.81828394  0.06266371  0.71711732     0.13800
H446        H  0.78310873  0.04766114  0.63412966     0.14300
C447        C  0.94307795  0.05980320  0.69459903    -0.12100
C448        C  0.92150898  0.07502203  0.67874761    -0.13700
C449        C  0.20809942  0.05623370  0.80015047    -0.15300
C450        C  0.20024208  0.05658764  0.84122463    -0.30400
H451        H  0.19626425  0.07205241  0.77805009     0.13800
H452        H  0.21316488  0.04110982  0.86292960     0.14300
C453        C  0.09278319  0.07160545  0.82766806    -0.12100
C454        C  0.07278992  0.05600876  0.80937465    -0.13700
C455        C  0.19504064  0.42626272  0.68193604    -0.15300
C456        C  0.21622877  0.44608707  0.66324347    -0.30400
H457        H  0.19517247  0.42435095  0.71609472     0.13800
H458        H  0.21653264  0.44890451  0.62929355     0.14300
C459        C  0.08981214  0.41702723  0.69128445    -0.12100
C460        C  0.07073511  0.43418085  0.70871681    -0.13700
C461        C  0.29140673  0.18607969  0.66870967    -0.15300
C462        C  0.32049466  0.17549813  0.68073580    -0.30400
H463        H  0.28225062  0.18055262  0.63745218     0.13800
H464        H  0.32850529  0.17938980  0.71296403     0.14300
C465        C  0.28307914  0.30892910  0.81501610    -0.15300
C466        C  0.31198955  0.32059866  0.80398680    -0.30400
H467        H  0.27246619  0.31512323  0.84521560     0.13800
H468        H  0.32167057  0.31560979  0.77283689     0.14300
C469        C  0.19191633  0.17574709  0.82536399    -0.15300
C470        C  0.16798138  0.15580170  0.81457096    -0.30400
H471        H  0.20238500  0.17450977  0.85673574     0.13800
H472        H  0.15941801  0.15490913  0.78222224     0.14300
C473        C  0.17948978  0.30376184  0.67583412    -0.15300
C474        C  0.16055460  0.32660289  0.69246596    -0.30400
H475        H  0.18539396  0.30396865  0.64252574     0.13800
H476        H  0.15710194  0.32788813  0.72637572     0.14300
C477        C  0.72157274  0.21369465  0.82093485    -0.15300
C478        C  0.69619324  0.19649804  0.80729118    -0.30400
H479        H  0.72693247  0.21571596  0.85428028     0.13800
H480        H  0.69145434  0.19531197  0.77362659     0.14300
C481        C  0.69278461  0.31980082  0.67390143    -0.15300
C482        C  0.71431919  0.29859282  0.65891266    -0.30400
H483        H  0.69346298  0.32600450  0.70717375     0.13800
H484        H  0.71369721  0.29114246  0.62616211     0.14300
C485        C  0.83655587  0.33211102  0.78922340    -0.15300
C486        C  0.84941782  0.33013946  0.82804632    -0.30400
H487        H  0.83491434  0.35493488  0.77330143     0.13800
H488        H  0.84924594  0.30725326  0.84418482     0.14300
C489        C  0.84170722  0.19212958  0.67448258    -0.15300
C490        C  0.84567045  0.16181108  0.68773580    -0.30400
H491        H  0.85053593  0.19941133  0.64379582     0.13800
H492        H  0.83773173  0.15531725  0.71921376     0.14300
C493        C  0.83256131  0.39051262  0.03125506    -0.12200
C494        C  0.86151255  0.38918178  0.05439918     0.10000
C495        C  0.89027977  0.38322357  0.03216165    -0.12200
C496        C  0.89064203  0.38303272  0.98811547    -0.12200
C497        C  0.86227718  0.38887919  0.96494537     0.10000
C498        C  0.83293523  0.39043318  0.98717921    -0.12200
H499        H  0.80952565  0.39210944  0.04712743     0.14000
H500        H  0.91270362  0.37886148  0.04861300     0.14000
H501        H  0.91331511  0.37852287  0.97232003     0.14000
H502        H  0.81013462  0.39179009  0.97066329     0.14000
C503        C  0.81111550  0.43734050  0.18735691    -0.15300
C504        C  0.78607179  0.45330926  0.17069662    -0.30400
H505        H  0.81410024  0.43709690  0.22139120     0.13800
H506        H  0.78240397  0.45432175  0.13691028     0.14300
C507        C  0.93841993  0.44188421  0.20235538    -0.12100
C508        C  0.91783970  0.42557401  0.18616207    -0.13700
C509        C  0.83229462  0.10705216  0.48095834    -0.12200
C510        C  0.86118899  0.10776770  0.45766310     0.10000
C511        C  0.89023201  0.11236057  0.47981920    -0.12200
C512        C  0.89087466  0.11184163  0.52378312    -0.12200
C513        C  0.86243048  0.10700694  0.54708544     0.10000
C514        C  0.83291436  0.10676516  0.52506883    -0.12200
H515        H  0.80913585  0.10648430  0.46525698     0.14000
H516        H  0.91271482  0.11614326  0.46327293     0.14000
H517        H  0.91381808  0.11541262  0.53928793     0.14000
H518        H  0.81022101  0.10594406  0.54188186     0.14000
C519        C  0.81024458  0.06634505  0.32086373    -0.15300
C520        C  0.78197190  0.05501754  0.33490031    -0.30400
H521        H  0.81632289  0.06361751  0.28772510     0.13800
H522        H  0.77491433  0.05779676  0.36761612     0.14300
C523        C  0.93734588  0.05706498  0.30714942    -0.12100
C524        C  0.91700499  0.07226590  0.32532328    -0.13700
C525        C  0.14356888  0.14189144  0.02648392    -0.12200
C526        C  0.13989844  0.11379180  0.05030710     0.10000
C527        C  0.13525071  0.08476762  0.02865768    -0.12200
C528        C  0.13632098  0.08343407  0.98485946    -0.12200
C529        C  0.14203116  0.11107157  0.96094045     0.10000
C530        C  0.14461820  0.14055646  0.98238201    -0.12200
H531        H  0.14629734  0.16497320  0.04123001     0.14000
H532        H  0.13186540  0.06270266  0.04593784     0.14000
H533        H  0.13352320  0.06044324  0.96949943     0.14000
H534        H  0.14780882  0.16282046  0.96590845     0.14000
C535        C  0.19945016  0.06591876  0.17121354    -0.15300
C536        C  0.20755581  0.06505264  0.21216542    -0.30400
H537        H  0.21284668  0.05121884  0.14898113     0.13800
H538        H  0.19519882  0.07983816  0.23513073     0.14300
C539        C  0.06910908  0.06122918  0.19926723    -0.12100
C540        C  0.09030415  0.07709440  0.18390115    -0.13700
C541        C  0.13186427  0.41262677  0.53289557    -0.12200
C542        C  0.13539797  0.38316752  0.55358177     0.10000
C543        C  0.13616520  0.35512764  0.52880595    -0.12200
C544        C  0.13623811  0.35685073  0.48480976    -0.12200
C545        C  0.13551091  0.38662912  0.46429107     0.10000
C546        C  0.13175839  0.41431544  0.48904548    -0.12200
H547        H  0.13026076  0.43462231  0.55086394     0.14000
H548        H  0.13708685  0.33160559  0.54244805     0.14000
H549        H  0.13713056  0.33463483  0.46758005     0.14000
H550        H  0.13006613  0.43759216  0.47428847     0.14000
C551        C  0.19812656  0.43976405  0.34906254    -0.15300
C552        C  0.21030048  0.43660016  0.31010078    -0.30400
H553        H  0.20894643  0.45675929  0.37083544     0.13800
H554        H  0.20057616  0.41895820  0.28846434     0.14300
C555        C  0.08895413  0.42738265  0.33019793    -0.12100
C556        C  0.06859068  0.44288565  0.31239077    -0.13700
C557        C  0.29387375  0.20898234  0.33232207    -0.15300
C558        C  0.31508586  0.18776937  0.31678504    -0.30400
H559        H  0.29332398  0.21464837  0.36568445     0.13800
H560        H  0.31532189  0.18324088  0.28303875     0.14300
C561        C  0.29052830  0.29995087  0.17205146    -0.15300
C562        C  0.30895360  0.32502715  0.18314291    -0.30400
H563        H  0.29224262  0.28981354  0.14062095     0.13800
H564        H  0.30828859  0.33381113  0.21538557     0.14300
C565        C  0.16748994  0.19467880  0.18676016    -0.15300
C566        C  0.16495951  0.16338093  0.19559242    -0.30400
H567        H  0.15639943  0.20454716  0.15867628     0.13800
H568        H  0.17527300  0.15436185  0.22474344     0.14300
C569        C  0.16825441  0.31233708  0.32423349    -0.15300
C570        C  0.16547747  0.34385825  0.31711638    -0.30400
H571        H  0.15725591  0.30152479  0.35174095     0.13800
H572        H  0.17578221  0.35390786  0.28857263     0.14300
C573        C  0.69183707  0.31686471  0.31785488    -0.15300
C574        C  0.71497616  0.29891246  0.33558798    -0.30400
H575        H  0.69087395  0.31874840  0.28371170     0.13800
H576        H  0.71649352  0.29604322  0.36947317     0.14300
C577        C  0.71324296  0.19184964  0.20482652    -0.15300
C578        C  0.70388737  0.19683900  0.16487218    -0.30400
H579        H  0.70350448  0.17203362  0.22281140     0.13800
H580        H  0.71520951  0.21571616  0.14660067     0.14300
C581        C  0.84339373  0.19255615  0.32865628    -0.15300
C582        C  0.84844702  0.16235248  0.31600800    -0.30400
H583        H  0.85014440  0.20032009  0.36007036     0.13800
H584        H  0.84174045  0.15547320  0.28412493     0.14300
C585        C  0.83469083  0.30959233  0.18669728    -0.15300
C586        C  0.84206181  0.33963576  0.19817941    -0.30400
H587        H  0.83998690  0.30096744  0.15522193     0.13800
H588        H  0.83690646  0.34733422  0.23020827     0.14300
In589      In  0.78598762  0.75024273  0.24687879     1.36900
C590        C  0.74703165  0.71868478  0.19384342     0.78700
O591        O  0.80090256  0.70024127  0.26557886    -0.59700
O592        O  0.82362935  0.73884983  0.29664847    -0.50600
C593        C  0.82087950  0.79363047  0.20434181     0.71400
O594        O  0.82496254  0.76397686  0.20001615    -0.45500
C595        C  0.74625596  0.78146863  0.29839922     0.76100
O596        O  0.77464401  0.72833088  0.18329201    -0.57300
O597        O  0.76892692  0.76405423  0.31156504    -0.47400
O598        O  0.73955946  0.72482236  0.23151072    -0.53800
C599        C  0.82033822  0.70898893  0.29386007     0.86300
O600        O  0.80031536  0.80100410  0.23179897    -0.55700
O601        O  0.74388599  0.78297883  0.25875912    -0.58900
In602      In  0.22659769  0.75144812  0.24640671     1.36900
C603        C  0.26835963  0.72302359  0.29752529     0.78700
O604        O  0.18936359  0.73853037  0.19769493    -0.59700
O605        O  0.20896111  0.70157304  0.23559239    -0.50600
C606        C  0.18615973  0.78904753  0.28847849     0.71400
O607        O  0.18864802  0.75960087  0.29570144    -0.45500
C608        C  0.26640288  0.78337360  0.19597309     0.76100
O609        O  0.24682606  0.74174958  0.31072054    -0.57300
O610        O  0.24585566  0.76383106  0.18212845    -0.47400
O611        O  0.26851806  0.71878522  0.25813549    -0.53800
C612        C  0.19017088  0.70911665  0.20604122     0.86300
O613        O  0.20339088  0.79905972  0.25854315    -0.55700
O614        O  0.26616627  0.78697676  0.23545351    -0.58900
C615        C  0.13776932  0.88944068  0.40565929     0.87700
C616        C  0.14608087  0.85929143  0.37999363    -0.52600
C617        C  0.15117679  0.86505255  0.33795644     0.10600
C618        C  0.14709802  0.90024918  0.32555033     0.21500
C619        C  0.16542708  0.91299672  0.39624892    -0.53300
C620        C  0.17079770  0.91827358  0.35449657     0.10700
C621        C  0.10839796  0.90402716  0.38302399    -0.52800
C622        C  0.11344000  0.90957823  0.34138836     0.11200
H623        H  0.14948262  0.83611194  0.39461777     0.15800
H624        H  0.15021761  0.90477344  0.29136641     0.01500
H625        H  0.18007054  0.92401972  0.42070643     0.16100
H626        H  0.08577708  0.91054031  0.39770381     0.15900
C627        C  0.15191318  0.60148943  0.09518057     0.87700
C628        C  0.15915485  0.63266493  0.11943153    -0.52600
C629        C  0.16098959  0.62888607  0.16219811     0.10600
C630        C  0.15550992  0.59429834  0.17683542     0.21500
C631        C  0.17873322  0.57857298  0.10956523    -0.53300
C632        C  0.18090544  0.57473473  0.15209215     0.10700
C633        C  0.12093852  0.58846229  0.11517134    -0.52800
C634        C  0.12277116  0.58467457  0.15769256     0.11200
H635        H  0.16516690  0.65509586  0.10457990     0.15800
H636        H  0.15627704  0.59143811  0.21155076     0.01500
H637        H  0.19507140  0.56673093  0.08776006     0.16100
H638        H  0.09955900  0.58228990  0.09707481     0.15900
C639        C  0.85859653  0.60317448  0.41340859     0.87700
C640        C  0.84919521  0.63398458  0.38954352    -0.52600
C641        C  0.84772819  0.63025653  0.34651267     0.10600
C642        C  0.85564321  0.59620413  0.33153635     0.21500
C643        C  0.83413419  0.57785650  0.39841069    -0.53300
C644        C  0.83190493  0.57473759  0.35581268     0.10700
C645        C  0.89052975  0.59221322  0.39299193    -0.52800
C646        C  0.88887197  0.58866672  0.35044934     0.11200
H647        H  0.84299939  0.65612552  0.40549424     0.15800
H648        H  0.85495896  0.59316611  0.29678056     0.01500
H649        H  0.81907038  0.56407122  0.41969216     0.16100
H650        H  0.91214880  0.58569534  0.41017132     0.15900
C651        C  0.85390380  0.90044605  0.08673444     0.87700
C652        C  0.84682094  0.86968022  0.11156577    -0.52600
C653        C  0.84518115  0.87400893  0.15437138     0.10600
C654        C  0.85094192  0.90878390  0.16836599     0.21500
C655        C  0.82775148  0.92439340  0.10112961    -0.53300
C656        C  0.82571913  0.92840582  0.14373835     0.10700
C657        C  0.88506213  0.91399718  0.10631750    -0.52800
C658        C  0.88346182  0.91823940  0.14877328     0.11200
H659        H  0.84194610  0.84696318  0.09624644     0.15800
H660        H  0.85047038  0.91214283  0.20303766     0.01500
H661        H  0.81200649  0.93712531  0.07954576     0.16100
H662        H  0.90610935  0.92120256  0.08837442     0.15900
In663      In  0.00442529  0.50284338  0.25500593     1.36900
C664        C  0.95725586  0.96441594  0.20858391     0.78700
O665        O  0.03976967  0.96181364  0.24072753    -0.59700
O666        O  0.02576921  0.97690383  0.30219279    -0.50600
C667        C  0.04848912  0.53989598  0.21814971     0.71400
O668        O  0.03220493  0.51948965  0.19804749    -0.45500
C669        C  0.96181879  0.54190780  0.29053343     0.76100
O670        O  0.97338963  0.98532240  0.18924008    -0.57300
O671        O  0.97976627  0.52373431  0.31183250    -0.47400
O672        O  0.96475723  0.96063657  0.24672088    -0.53800
C673        C  0.04396479  0.95961933  0.27993482     0.86300
O674        O  0.04145324  0.54236423  0.25662880    -0.55700
O675        O  0.96634385  0.54102219  0.25129140    -0.58900
In676      In  0.78616375  0.74751311  0.74994080     1.36900
C677        C  0.74402649  0.71806095  0.79993594     0.78700
O678        O  0.74424952  0.78014929  0.73700398    -0.59700
O679        O  0.77040895  0.76198100  0.68478015    -0.50600
C680        C  0.82410414  0.78747774  0.79238143     0.71400
O681        O  0.82478100  0.75776451  0.79836692    -0.45500
C682        C  0.82344979  0.70601297  0.70866387     0.76100
O683        O  0.76523167  0.73691124  0.81375818    -0.57300
O684        O  0.82264790  0.73531479  0.69982705    -0.47400
O685        O  0.74452958  0.71399183  0.76049807    -0.53800
C686        C  0.74730677  0.77899372  0.69747909     0.86300
O687        O  0.80504859  0.79639218  0.76383210    -0.55700
O688        O  0.80618977  0.69815134  0.73965926    -0.58900
In689      In  0.23076689  0.75073333  0.75890163     1.36900
C690        C  0.26719611  0.71963336  0.70245173     0.78700
O691        O  0.27051389  0.78627147  0.76862693    -0.59700
O692        O  0.26050974  0.75344750  0.81799527    -0.50600
C693        C  0.19591124  0.80033594  0.73071022     0.71400
O694        O  0.19590653  0.77338492  0.71271628    -0.45500
C695        C  0.19158680  0.71027057  0.79970239     0.76100
O696        O  0.24479380  0.73838688  0.69201031    -0.57300
O697        O  0.19861129  0.73756073  0.81359097    -0.47400
O698        O  0.27088228  0.71667320  0.74169823    -0.53800
C699        C  0.27685163  0.77704358  0.80557872     0.86300
O700        O  0.21221351  0.80130450  0.76406015    -0.55700
O701        O  0.20282808  0.70436223  0.76369831    -0.58900
C702        C  0.13987362  0.88718562  0.58942333     0.87700
C703        C  0.11100617  0.90026493  0.61458539    -0.52600
C704        C  0.11668554  0.90289620  0.65668730     0.10600
C705        C  0.15060113  0.89186380  0.67042675     0.21500
C706        C  0.16773479  0.90986411  0.60105762    -0.53300
C707        C  0.17367520  0.91236617  0.64322815     0.10700
C708        C  0.14821302  0.85542717  0.61054593    -0.52800
C709        C  0.15424905  0.85748498  0.65265713     0.11200
H710        H  0.08865502  0.90881282  0.60101929     0.15800
H711        H  0.15409006  0.89386131  0.70488794     0.01500
H712        H  0.18155237  0.92298791  0.57768038     0.16100
H713        H  0.15027383  0.83313896  0.59307149     0.15900
C714        C  0.15224755  0.60207843  0.91009787     0.87700
C715        C  0.12090878  0.58932430  0.89077145    -0.52600
C716        C  0.12196192  0.58589053  0.84820100     0.10600
C717        C  0.15426117  0.59571026  0.82823802     0.21500
C718        C  0.17869525  0.57913668  0.89444864    -0.53300
C719        C  0.17997957  0.57571801  0.85172032     0.10700
C720        C  0.15926758  0.63347078  0.88626422    -0.52800
C721        C  0.16027282  0.63019675  0.84331227     0.11200
H722        H  0.09997101  0.58267341  0.90940404     0.15800
H723        H  0.15417327  0.59316546  0.79347609     0.01500
H724        H  0.19526751  0.56688139  0.91549794     0.16100
H725        H  0.16562777  0.65562978  0.90160110     0.15900
C726        C  0.85860122  0.59638968  0.59877157     0.87700
C727        C  0.89006090  0.58226502  0.61677844    -0.52600
C728        C  0.89052518  0.58023801  0.65943920     0.10600
C729        C  0.85959076  0.59193840  0.68082236     0.21500
C730        C  0.83197670  0.57431044  0.61711631    -0.53300
C731        C  0.83256571  0.57224452  0.66038760     0.10700
C732        C  0.85389549  0.62841744  0.62172823    -0.52800
C733        C  0.85402544  0.62606370  0.66475894     0.11200
H734        H  0.90967241  0.57288754  0.59777051     0.15800
H735        H  0.86030316  0.59012019  0.71577923     0.01500
H736        H  0.81456314  0.56175818  0.59768957     0.16100
H737        H  0.84854121  0.65039815  0.60500297     0.15900
C738        C  0.85794765  0.89745121  0.90144384     0.87700
C739        C  0.88964420  0.91133572  0.88397617    -0.52600
C740        C  0.89061203  0.91291846  0.84122535     0.10600
C741        C  0.86005810  0.90083727  0.81931048     0.21500
C742        C  0.83164546  0.91916002  0.88181034    -0.53300
C743        C  0.83259829  0.92051123  0.83860420     0.10700
C744        C  0.85374454  0.86507534  0.87919072    -0.52800
C745        C  0.85459881  0.86693563  0.83609876     0.11200
H746        H  0.90903224  0.92070708  0.90340324     0.15800
H747        H  0.86117317  0.90224621  0.78433388     0.01500
H748        H  0.81403616  0.93200149  0.90051831     0.16100
H749        H  0.84819928  0.84328129  0.89621814     0.15900
In750      In  0.00597892  0.49654903  0.75896383     1.36900
C751        C  0.05024609  0.95782826  0.71739214     0.78700
O752        O  0.04269571  0.53591152  0.75278282    -0.59700
O753        O  0.03210766  0.51837785  0.81411644    -0.50600
C754        C  0.96271726  0.53236165  0.71957276     0.71400
O755        O  0.97972446  0.51200613  0.70043145    -0.45500
C756        C  0.96309666  0.96197447  0.78415327     0.76100
O757        O  0.03657407  0.97900556  0.69541571    -0.57300
O758        O  0.98044996  0.98057507  0.80570803    -0.47400
O759        O  0.04173292  0.95707203  0.75545764    -0.53800
C760        C  0.04872555  0.53699457  0.79167304     0.86300
O761        O  0.96833390  0.53502870  0.75843324    -0.55700
O762        O  0.96886087  0.96167417  0.74518009    -0.58900
In763      In  0.28240536  0.49479811  0.26424569     1.36900
C764        C  0.23960968  0.53378130  0.22914608     0.78700
O765        O  0.24178607  0.96205516  0.24738727    -0.59700
O766        O  0.24937147  0.97939446  0.30949262    -0.50600
C767        C  0.31550085  0.96752435  0.20689360     0.71400
O768        O  0.30101642  0.99211964  0.19402208    -0.45500
C769        C  0.32016345  0.53536127  0.30622454     0.76100
O770        O  0.25827953  0.51652643  0.20719503    -0.57300
O771        O  0.30765242  0.51108485  0.32310042    -0.47400
O772        O  0.24373823  0.53170759  0.26833781    -0.53800
C773        C  0.23425844  0.96035271  0.28572888     0.86300
O774        O  0.31159858  0.96159887  0.24558649    -0.55700
O775        O  0.31499997  0.53787887  0.26713286    -0.58900
In776      In  0.72110265  0.00492592  0.25624223     1.36900
C777        C  0.76890648  0.53959511  0.28000363     0.78700
O778        O  0.75834489  0.96603997  0.25956037    -0.59700
O779        O  0.75164942  0.98941004  0.20094219    -0.50600
C780        C  0.68133644  0.96631227  0.29786975     0.71400
O781        O  0.68767301  0.99417994  0.31030712    -0.45500
C782        C  0.68130098  0.54216946  0.20580034     0.76100
O783        O  0.75357489  0.51879226  0.30071822    -0.57300
O784        O  0.68595068  0.51356429  0.19510015    -0.47400
O785        O  0.75993209  0.54272884  0.24231227    -0.53800
C786        C  0.76678113  0.96844688  0.22158019     0.86300
O787        O  0.69317699  0.95919261  0.26247502    -0.55700
O788        O  0.69623515  0.55077023  0.23854502    -0.58900
C789        C  0.64970501  0.64654571  0.08809675     0.87700
C790        C  0.61754569  0.66096560  0.10266230    -0.52600
C791        C  0.61553488  0.66524987  0.14498814     0.10600
C792        C  0.64545858  0.65473044  0.16952174     0.21500
C793        C  0.67589121  0.66880068  0.10673998    -0.57700
C794        C  0.67356045  0.67303536  0.14950622     0.10700
C795        C  0.65332596  0.61542709  0.11393365    -0.52800
C796        C  0.65118473  0.61986866  0.15668205     0.11200
H797        H  0.59836999  0.66795204  0.08118528     0.15800
H798        H  0.64341019  0.65833948  0.20416202     0.01500
H799        H  0.69429144  0.68010991  0.08757536     0.16100
H800        H  0.66018658  0.59266505  0.10051380     0.15900
C801        C  0.36286762  0.86092934  0.09703168     0.87700
C802        C  0.39414256  0.84836381  0.11721334    -0.52600
C803        C  0.39331421  0.84725167  0.15983002     0.10600
C804        C  0.36145221  0.85824334  0.17922013     0.21500
C805        C  0.33661582  0.83845679  0.11483378    -0.53300
C806        C  0.33574550  0.83735906  0.15800014     0.10700
C807        C  0.35636584  0.89340739  0.11847158    -0.52800
C808        C  0.35537576  0.89189885  0.16174002     0.11200
H809        H  0.41444943  0.83864790  0.09985152     0.15800
H810        H  0.36111011  0.85686931  0.21422227     0.01500
H811        H  0.32045670  0.82482291  0.09486708     0.16100
H812        H  0.35180803  0.91500315  0.10058779     0.15900
C813        C  0.36516884  0.65080494  0.40189733     0.87700
C814        C  0.39669286  0.66124113  0.38015204    -0.52600
C815        C  0.39550789  0.65993312  0.33742938     0.10600
C816        C  0.36320659  0.64850591  0.31962664     0.21500
C817        C  0.33942208  0.67273416  0.38202715    -0.53300
C818        C  0.33822705  0.67128119  0.33889765     0.10700
C819        C  0.35777629  0.61733895  0.38396582    -0.52800
C820        C  0.35656237  0.61612400  0.34070885     0.11200
H821        H  0.41733037  0.67157110  0.39610259     0.15800
H822        H  0.36254737  0.64774542  0.28459548     0.01500
H823        H  0.32384962  0.68791862  0.40082167     0.16100
H824        H  0.35275672  0.59709121  0.40420027     0.15900
C825        C  0.65097156  0.85450389  0.40562838     0.87700
C826        C  0.61955397  0.83977903  0.38851156    -0.52600
C827        C  0.61802159  0.83875574  0.34572451     0.10600
C828        C  0.64792287  0.85201330  0.32346622     0.21500
C829        C  0.67770954  0.83395771  0.38486276    -0.53300
C830        C  0.67625552  0.83296656  0.34173453     0.10700
C831        C  0.65364963  0.88731544  0.38411226    -0.52800
C832        C  0.65235126  0.88595813  0.34092316     0.11200
H833        H  0.60056686  0.83014043  0.40836017     0.15800
H834        H  0.64640743  0.85086868  0.28849448     0.01500
H835        H  0.69552769  0.82079733  0.40263983     0.16100
H836        H  0.65815987  0.90908959  0.40176504     0.15900
In837      In  0.50497924  0.75302477  0.24513287     1.36900
C838        C  0.54506671  0.71544006  0.20386051     0.78700
O839        O  0.54472596  0.78937447  0.24495456    -0.59700
O840        O  0.52776501  0.77227279  0.30408149    -0.50600
C841        C  0.46339167  0.79483884  0.21495677     0.71400
O842        O  0.48032492  0.77739816  0.19130350    -0.45500
C843        C  0.46414746  0.71100930  0.27709169     0.76100
O844        O  0.52743413  0.73550483  0.18526972    -0.57300
O845        O  0.48244035  0.72779373  0.29984187    -0.47400
O846        O  0.54202621  0.71431751  0.24333207    -0.53800
C847        C  0.54708332  0.79013050  0.28451717     0.86300
O848        O  0.46815174  0.79149620  0.25384358    -0.55700
O849        O  0.46705900  0.71514645  0.23800078    -0.58900
In850      In  0.27657049  0.99700050  0.74773776     1.36900
C851        C  0.23346797  0.95718192  0.71539990     0.78700
O852        O  0.31175038  0.95720172  0.73721739    -0.59700
O853        O  0.30260436  0.97239577  0.80026014    -0.50600
C854        C  0.32007698  0.54741165  0.71101147     0.71400
O855        O  0.30630869  0.52954885  0.68433749    -0.45500
C856        C  0.23607455  0.53560707  0.77075786     0.76100
O857        O  0.24952345  0.97612297  0.69233401    -0.57300
O858        O  0.25331041  0.51588581  0.79088717    -0.47400
O859        O  0.23981466  0.95870583  0.75419042    -0.53800
C860        C  0.31699707  0.95302994  0.77596847     0.86300
O861        O  0.31495715  0.54005749  0.74887490    -0.55700
O862        O  0.24174321  0.53709364  0.73181652    -0.58900
In863      In  0.72435811  0.49135919  0.75981462     1.36900
C864        C  0.76187017  0.97095894  0.79580879     0.78700
O865        O  0.69927647  0.95335201  0.73399912    -0.59700
O866        O  0.68903850  0.98978602  0.68968243    -0.50600
C867        C  0.68344326  0.53274951  0.79578115     0.71400
O868        O  0.68652100  0.50435708  0.80801420    -0.45500
C869        C  0.76318221  0.52043118  0.70461181     0.76100
O870        O  0.74182844  0.99152428  0.80830801    -0.57300
O871        O  0.74061597  0.50213980  0.69327478    -0.47400
O872        O  0.76118277  0.96549295  0.75664275    -0.53800
C873        C  0.68520490  0.96108144  0.70028661     0.86300
O874        O  0.70046275  0.53977365  0.76431503    -0.55700
O875        O  0.76574947  0.52382531  0.74401575    -0.58900
C876        C  0.36507097  0.85805529  0.91155463     0.87700
C877        C  0.35779645  0.89138312  0.89460186    -0.52600
C878        C  0.35622060  0.89336786  0.85189108     0.10600
C879        C  0.36315560  0.86121849  0.82934292     0.21500
C880        C  0.33939696  0.83617565  0.89124807    -0.53300
C881        C  0.33845038  0.83788042  0.84808851     0.10700
C882        C  0.39669165  0.84776202  0.88982247    -0.52800
C883        C  0.39560054  0.84923774  0.84691686     0.11200
H884        H  0.35240801  0.91153916  0.91512968     0.15800
H885        H  0.36252096  0.86203713  0.79441344     0.01500
H886        H  0.32337325  0.82113002  0.90955180     0.16100
H887        H  0.41702131  0.83716280  0.90620692     0.15900
C888        C  0.36318720  0.65360720  0.58771686     0.87700
C889        C  0.35817490  0.61886038  0.60078291    -0.52600
C890        C  0.35635075  0.61398996  0.64307181     0.10600
C891        C  0.36085405  0.64492194  0.66924210     0.21500
C892        C  0.33573317  0.67224835  0.60984385    -0.53300
C893        C  0.33454794  0.66766040  0.65275474     0.10700
C894        C  0.39374648  0.66456346  0.61126017    -0.52800
C895        C  0.39249056  0.66002521  0.65367576     0.11200
H896        H  0.35436432  0.59978644  0.57797678     0.15800
H897        H  0.36018200  0.64170230  0.70392494     0.01500
H898        H  0.31944305  0.68790859  0.59290396     0.16100
H899        H  0.41355452  0.67739452  0.59671457     0.15900
C900        C  0.65072524  0.85109918  0.59125522     0.87700
C901        C  0.65390909  0.88354038  0.61365124    -0.52600
C902        C  0.65302466  0.88168026  0.65677497     0.10600
C903        C  0.64807149  0.84759451  0.67333811     0.21500
C904        C  0.67737930  0.82999505  0.61120370    -0.53300
C905        C  0.67611346  0.82854848  0.65432391     0.10700
C906        C  0.61922503  0.83647210  0.60816051    -0.52800
C907        C  0.61788185  0.83488493  0.65095199     0.11200
H908        H  0.65889938  0.90539200  0.59650695     0.15800
H909        H  0.64673590  0.84607756  0.70828857     0.01500
H910        H  0.69505003  0.81692362  0.59296625     0.16100
H911        H  0.60001755  0.82739295  0.58814989     0.15900
C912        C  0.64813933  0.64257598  0.90218703     0.87700
C913        C  0.65161446  0.61035504  0.87881878    -0.52600
C914        C  0.65059329  0.61279408  0.83578776     0.10600
C915        C  0.64560127  0.64719205  0.82010936     0.21500
C916        C  0.67501795  0.66343268  0.88289011    -0.53300
C917        C  0.67362340  0.66595285  0.83985489     0.10700
C918        C  0.61655918  0.65701002  0.88552925    -0.52800
C919        C  0.61531045  0.65957083  0.84279814     0.11200
H920        H  0.65812290  0.58824011  0.89412320     0.15800
H921        H  0.64437725  0.64925395  0.78520673     0.01500
H922        H  0.69361393  0.67450116  0.90200782     0.16100
H923        H  0.59735436  0.66557474  0.90594550     0.15900
In924      In  0.50216643  0.75184748  0.75071161     1.36900
C925        C  0.45963378  0.71133634  0.71782073     0.78700
O926        O  0.54001189  0.71337502  0.74736652    -0.59700
O927        O  0.52651059  0.73065485  0.80787625    -0.50600
C928        C  0.54502095  0.78826019  0.71138964     0.71400
O929        O  0.52713924  0.76880124  0.69201775    -0.45500
C930        C  0.46199033  0.79458009  0.78493058     0.76100
O931        O  0.47582949  0.73047718  0.69566853    -0.57300
O932        O  0.48027810  0.77708377  0.80676600    -0.47400
O933        O  0.46513969  0.71268332  0.75685054    -0.53800
C934        C  0.54422789  0.71213542  0.78661775     0.86300
O935        O  0.54038216  0.78992568  0.75056323    -0.55700
O936        O  0.46441184  0.79061528  0.74568734    -0.58900
C937        C  0.58922766  0.67597656  0.82166481    -0.12100
C938        C  0.56812379  0.69169378  0.80552809    -0.13700
C939        C  0.59130572  0.82017624  0.67286238    -0.12100
C940        C  0.56963719  0.80643182  0.69053501    -0.13700
C941        C  0.41628398  0.67440157  0.68104238    -0.12100
C942        C  0.43623051  0.69001278  0.69965651    -0.13700
C943        C  0.43946583  0.81679568  0.80356233    -0.12100
C944        C  0.41981262  0.83336204  0.82145124    -0.13700
C945        C  0.66188094  0.58699172  0.80706417    -0.15300
C946        C  0.66327766  0.55608622  0.81855822    -0.30400
H947        H  0.67222755  0.59428361  0.77712294     0.13800
H948        H  0.65192504  0.54815559  0.84752614     0.14300
C949        C  0.66303356  0.90774284  0.68579796    -0.15300
C950        C  0.66736655  0.93818817  0.67373588    -0.30400
H951        H  0.66967345  0.90081305  0.71764531     0.13800
H952        H  0.65994862  0.94608922  0.64266527     0.14300
C953        C  0.33693004  0.92629168  0.79135323    -0.15300
C954        C  0.34306106  0.92288531  0.83253458    -0.30400
H955        H  0.34442604  0.90828919  0.76878860     0.13800
H956        H  0.33554010  0.94181929  0.85394500     0.14300
C957        C  0.33899058  0.57590440  0.69926481    -0.15300
C958        C  0.34468227  0.58264836  0.65869586    -0.30400
H959        H  0.34592928  0.59239976  0.72404457     0.13800
H960        H  0.33783497  0.56509112  0.63498238     0.14300
C961        C  0.62433272  0.86504144  0.47671922    -0.12200
C962        C  0.65212611  0.85658265  0.45375456     0.10000
C963        C  0.68076031  0.85100079  0.47647337    -0.12200
C964        C  0.68060563  0.84987822  0.52048711    -0.12200
C965        C  0.65181585  0.85428878  0.54328509     0.10000
C966        C  0.62417166  0.86388346  0.52080801    -0.12200
H967        H  0.60238364  0.87183747  0.46054634     0.14000
H968        H  0.70358381  0.84774413  0.46063529     0.14000
H969        H  0.70331697  0.84586575  0.53632007     0.14000
H970        H  0.60214031  0.86994594  0.53729641     0.14000
C971        C  0.57070254  0.80928841  0.30571510    -0.12100
C972        C  0.59174360  0.82374595  0.32365731    -0.13700
C973        C  0.39394265  0.65431601  0.47364551    -0.12200
C974        C  0.36520929  0.65200359  0.45012914     0.10000
C975        C  0.33591855  0.64999004  0.47242639    -0.12200
C976        C  0.33527639  0.65215539  0.51648227    -0.12200
C977        C  0.36392551  0.65615975  0.53975284     0.10000
C978        C  0.39330482  0.65634217  0.51753209    -0.12200
H979        H  0.41734267  0.65327685  0.45888380     0.14000
H980        H  0.31339038  0.64674743  0.45566902     0.14000
H981        H  0.31233978  0.64990710  0.53251544     0.14000
H982        H  0.41622227  0.65645110  0.53369372     0.14000
C983        C  0.42040146  0.67417749  0.31215626    -0.12100
C984        C  0.44089042  0.68958651  0.29466444    -0.13700
C985        C  0.39298188  0.86352210  0.02655594    -0.12200
C986        C  0.36362652  0.86241064  0.04890381     0.10000
C987        C  0.33479019  0.86265572  0.02552284    -0.12200
C988        C  0.33540923  0.86060961  0.98149497    -0.12200
C989        C  0.36486642  0.85828879  0.95954618     0.10000
C990        C  0.39360076  0.86126457  0.98271784    -0.12200
H991        H  0.41577318  0.86670180  0.04251103     0.14000
H992        H  0.31167787  0.86394102  0.04130654     0.14000
H993        H  0.31274814  0.86091205  0.96452136     0.14000
H994        H  0.41675355  0.86291205  0.96727407     0.14000
C995        C  0.41854589  0.83191946  0.18314635    -0.12100
C996        C  0.43958436  0.81617351  0.19878242    -0.13700
C997        C  0.65080408  0.61463221  0.01830595    -0.12200
C998        C  0.65102360  0.64401636  0.04008319     0.10000
C999        C  0.64999117  0.67230773  0.01621824    -0.12200
C1000       C  0.64913490  0.67135346  0.97223587    -0.12200
C1001       C  0.64939668  0.64207309  0.95036878     0.10000
C1002       C  0.64997690  0.61367322  0.97423616    -0.12200
H1003       H  0.65017748  0.59205970  0.03459761     0.14000
H1004       H  0.64939477  0.69535883  0.03181827     0.14000
H1005       H  0.64811669  0.69369812  0.95507662     0.14000
H1006       H  0.64888376  0.59040069  0.95971798     0.14000
C1007       C  0.58867473  0.68092939  0.16460469    -0.12100
C1008       C  0.56778091  0.69590884  0.18189559    -0.13700
C1009       C  0.66213634  0.56415553  0.17968083    -0.15300
C1010       C  0.66067203  0.59554361  0.18832858    -0.30400
H1011       H  0.65233234  0.55486461  0.15039486     0.13800
H1012       H  0.66958874  0.60429068  0.21843556     0.14300
C1013       C  0.66399203  0.94318676  0.32451317    -0.15300
C1014       C  0.66033397  0.91270813  0.31210020    -0.30400
H1015       H  0.65759227  0.95054429  0.35623113     0.13800
H1016       H  0.66630021  0.90625630  0.27982677     0.14300
C1017       C  0.33757884  0.55963970  0.33132326    -0.15300
C1018       C  0.34575869  0.58819358  0.31507554    -0.30400
H1019       H  0.34082278  0.55480149  0.36460233     0.13800
H1020       H  0.34206166  0.59231692  0.28160465     0.14300
C1021       C  0.34493459  0.91796486  0.19068573    -0.15300
C1022       C  0.33354322  0.94641417  0.17790684    -0.30400
H1023       H  0.34348893  0.91198186  0.22395749     0.13800
H1024       H  0.33422659  0.95305031  0.14490563     0.14300
C1025       C  0.80930464  0.93758373  0.81097224    -0.15300
C1026       C  0.78430726  0.95499531  0.82507313    -0.30400
H1027       H  0.81292665  0.93533314  0.77716352     0.13800
H1028       H  0.78033224  0.95838821  0.85854522     0.14300
C1029       C  0.93818945  0.94288758  0.80264562    -0.12100
C1030       C  0.91672306  0.92820350  0.81925974    -0.13700
C1031       C  0.80989740  0.55406912  0.68767732    -0.15300
C1032       C  0.78471074  0.53663235  0.67414615    -0.30400
H1033       H  0.81424009  0.55566942  0.72140598     0.13800
H1034       H  0.77964359  0.53417983  0.64075064     0.14300
C1035       C  0.93813802  0.55068649  0.69889119    -0.12100
C1036       C  0.91663201  0.56497757  0.68163805    -0.13700
C1037       C  0.21103130  0.55565464  0.79022842    -0.15300
C1038       C  0.20477998  0.55506838  0.83167866    -0.30400
H1039       H  0.19802357  0.57160126  0.76944360     0.13800
H1040       H  0.21898643  0.53956280  0.85195688     0.14300
C1041       C  0.09566410  0.57139960  0.82521545    -0.12100
C1042       C  0.07368520  0.55695218  0.80902589    -0.13700
C1043       C  0.19939447  0.93406107  0.65916279    -0.15300
C1044       C  0.20880104  0.93482477  0.69957085    -0.30400
H1045       H  0.21098189  0.94996371  0.63672100     0.13800
H1046       H  0.19808164  0.91890242  0.72249278     0.14300
C1047       C  0.09415088  0.91979714  0.68341657    -0.12100
C1048       C  0.07413613  0.93640994  0.70038706    -0.13700
C1049       C  0.28758714  0.70305558  0.67099265    -0.15300
C1050       C  0.31182047  0.68354343  0.68258555    -0.30400
H1051       H  0.28273682  0.70762650  0.63797303     0.13800
H1052       H  0.31576393  0.67920561  0.71596040     0.14300
C1053       C  0.30060499  0.79306644  0.83292773    -0.15300
C1054       C  0.31586572  0.81981661  0.82068908    -0.30400
H1055       H  0.30480337  0.78306525  0.86397996     0.13800
H1056       H  0.31209858  0.82884180  0.78896363     0.14300
C1057       C  0.17357250  0.68680764  0.82517425    -0.15300
C1058       C  0.17131640  0.65577870  0.81402401    -0.30400
H1059       H  0.16458922  0.69494403  0.85544244     0.13800
H1060       H  0.17984647  0.64830531  0.78315909     0.14300
C1061       C  0.17979037  0.82909092  0.71353276    -0.15300
C1062       C  0.16558623  0.82857627  0.67555796    -0.30400
H1063       H  0.18216784  0.85134596  0.73084910     0.13800
H1064       H  0.16460785  0.80599661  0.65855000     0.14300
C1065       C  0.72076419  0.70216731  0.82809891    -0.15300
C1066       C  0.69720583  0.68327891  0.81300491    -0.30400
H1067       H  0.72323595  0.70641859  0.86166082     0.13800
H1068       H  0.69492783  0.68016773  0.77911769     0.14300
C1069       C  0.69917764  0.81121167  0.68195181    -0.15300
C1070       C  0.72561997  0.79583383  0.66813369    -0.30400
H1071       H  0.69411037  0.81152216  0.71555862     0.13800
H1072       H  0.73153590  0.79501168  0.63487842     0.14300
C1073       C  0.84251283  0.81019710  0.81834288    -0.15300
C1074       C  0.84418197  0.84108333  0.80732848    -0.30400
H1075       H  0.85262532  0.80191245  0.84793856     0.13800
H1076       H  0.83534047  0.84837460  0.77654199     0.14300
C1077       C  0.84154348  0.68273481  0.68296918    -0.15300
C1078       C  0.84301386  0.65173531  0.69372272    -0.30400
H1079       H  0.85184053  0.69094487  0.65346675     0.13800
H1080       H  0.83378427  0.64429786  0.72422580     0.14300
C1081       C  0.82612115  0.89525862  0.01518127    -0.12200
C1082       C  0.85482763  0.89534937  0.03896466     0.10000
C1083       C  0.88406525  0.89043499  0.01734720    -0.12200
C1084       C  0.88493713  0.88994803  0.97329746    -0.12200
C1085       C  0.85666145  0.89464894  0.94946144     0.10000
C1086       C  0.82702248  0.89503928  0.97107755    -0.12200
H1087       H  0.80286768  0.89628037  0.03061738     0.14000
H1088       H  0.90647204  0.88710630  0.03421422     0.14000
H1089       H  0.90796962  0.88617518  0.95809264     0.14000
H1090       H  0.80443790  0.89573704  0.95400013     0.14000
C1091       C  0.80089686  0.94965297  0.16274621    -0.15300
C1092       C  0.79239167  0.94815382  0.20354560    -0.30400
H1093       H  0.78822722  0.96607675  0.14200238     0.13800
H1094       H  0.80371179  0.93108351  0.22451284     0.14300
C1095       C  0.93153712  0.94679281  0.18895962    -0.12100
C1096       C  0.90944164  0.93311501  0.17193211    -0.13700
C1097       C  0.82957989  0.60630050  0.48427798    -0.12200
C1098       C  0.85882340  0.60645407  0.46154271     0.10000
C1099       C  0.88771500  0.60784175  0.48472758    -0.12200
C1100       C  0.88751904  0.60520397  0.52857274    -0.12200
C1101       C  0.85850774  0.60051697  0.55087187     0.10000
C1102       C  0.82941628  0.60311961  0.52828506    -0.12200
H1103       H  0.80671701  0.60723222  0.46780968     0.14000
H1104       H  0.91073520  0.61117767  0.46947858     0.14000
H1105       H  0.91038637  0.60706415  0.54474824     0.14000
H1106       H  0.80648669  0.60222828  0.54454002     0.14000
C1107       C  0.80707610  0.55384020  0.33651258    -0.15300
C1108       C  0.79532434  0.55894964  0.29770386    -0.30400
H1109       H  0.79657677  0.53515311  0.35592453     0.13800
H1110       H  0.80471092  0.57817633  0.27838131     0.14300
C1111       C  0.93710148  0.56121986  0.30951407    -0.12100
C1112       C  0.91523843  0.57508729  0.32673540    -0.13700
C1113       C  0.15078638  0.63225711  0.02488268    -0.12200
C1114       C  0.14979235  0.60329152  0.04735640     0.10000
C1115       C  0.14696151  0.57463969  0.02440562    -0.12200
C1116       C  0.14739089  0.57473702  0.98048911    -0.12200
C1117       C  0.15049724  0.60350997  0.95799750     0.10000
C1118       C  0.15111801  0.63236226  0.98090536    -0.12200
H1119       H  0.15095144  0.65515411  0.04048085     0.14000
H1120       H  0.14517602  0.55194830  0.04065006     0.14000
H1121       H  0.14581003  0.55212757  0.96390167     0.14000
H1122       H  0.15140454  0.65534149  0.96564559     0.14000
C1123       C  0.20655389  0.55424178  0.17050620    -0.15300
C1124       C  0.21435287  0.55461304  0.21149757    -0.30400
H1125       H  0.21999805  0.53878384  0.14923899     0.13800
H1126       H  0.20173858  0.57012498  0.23334743     0.14300
C1127       C  0.07406789  0.55804266  0.19890847    -0.12100
C1128       C  0.09636916  0.57117916  0.18155902    -0.13700
C1129       C  0.10744863  0.89008879  0.52016277    -0.12200
C1130       C  0.13625208  0.88353471  0.54197131     0.10000
C1131       C  0.16325613  0.87354131  0.51860429    -0.12200
C1132       C  0.16252535  0.87325013  0.47473518    -0.12200
C1133       C  0.13489953  0.88336360  0.45281096     0.10000
C1134       C  0.10676255  0.88994626  0.47616730    -0.12200
H1135       H  0.08534778  0.89592842  0.53628524     0.14000
H1136       H  0.18551851  0.86722961  0.53444130     0.14000
H1137       H  0.18431180  0.86698392  0.45777175     0.14000
H1138       H  0.08417725  0.89583646  0.46131296     0.14000
C1139       C  0.19762271  0.93904814  0.34007614    -0.15300
C1140       C  0.20905923  0.93827609  0.30051285    -0.30400
H1141       H  0.20851831  0.95517232  0.36291534     0.13800
H1142       H  0.19927080  0.92169783  0.27755279     0.14300
C1143       C  0.08939060  0.92503242  0.31581822    -0.12100
C1144       C  0.06845270  0.93974798  0.29806726    -0.13700
C1145       C  0.29116233  0.70726373  0.32628337    -0.15300
C1146       C  0.31539560  0.68908800  0.31163053    -0.30400
H1147       H  0.28741298  0.71054709  0.35981443     0.13800
H1148       H  0.31836617  0.68635872  0.27777757     0.14300
C1149       C  0.28887975  0.80045148  0.16801085    -0.15300
C1150       C  0.31251904  0.81885314  0.18383484    -0.30400
H1151       H  0.28584133  0.79748397  0.13429656     0.13800
H1152       H  0.31498007  0.82090451  0.21784264     0.14300
C1153       C  0.17188663  0.68540375  0.18156388    -0.15300
C1154       C  0.17281368  0.65412330  0.19117363    -0.30400
H1155       H  0.15915065  0.69371244  0.15376413     0.13800
H1156       H  0.18430911  0.64639206  0.22020921     0.14300
C1157       C  0.16615432  0.81012407  0.31484434    -0.15300
C1158       C  0.16476428  0.84167517  0.30766332    -0.30400
H1159       H  0.15440970  0.79973414  0.34212384     0.13800
H1160       H  0.17586005  0.85132401  0.27938121     0.14300
C1161       C  0.69919758  0.81567868  0.31367195    -0.15300
C1162       C  0.72443829  0.79842689  0.32753366    -0.30400
H1163       H  0.69494034  0.81735263  0.27994382     0.13800
H1164       H  0.72940334  0.79613338  0.36091450     0.14300
C1165       C  0.72544404  0.70150388  0.16441706    -0.15300
C1166       C  0.69568683  0.69238116  0.17615179    -0.30400
H1167       H  0.73456342  0.69571623  0.13327321     0.13800
H1168       H  0.68754827  0.69778125  0.20793785     0.14300
C1169       C  0.83649844  0.68636490  0.32294528    -0.15300
C1170       C  0.83567623  0.65462561  0.31620005    -0.30400
H1171       H  0.84814063  0.69590104  0.35093420     0.13800
H1172       H  0.82547926  0.64570872  0.28688486     0.14300
C1173       C  0.83733933  0.81753226  0.17761136    -0.15300
C1174       C  0.83415441  0.84913632  0.18455181    -0.30400
H1175       H  0.85080347  0.80897302  0.15049650     0.13800
H1176       H  0.82206251  0.85737192  0.21295622     0.14300
loop_ 
_geom_bond_atom_site_label_1 
_geom_bond_atom_site_label_2 
_geom_bond_distance 
_geom_bond_site_symmetry_2 
_ccdc_geom_bond_type 
In1           O3   2.235       .  S
In1           O4   2.243       .  S
In1          O12   2.251       .  S
In1           O6   2.245       .  S
In1           O8   2.240       .  S
In1           O9   2.245       .  S
In1          O10   2.251       .  S
In1          O13   2.238       .  S
C2            O8   1.260       .  A
C2           O10   1.259       .  A
C2          C577   1.472       .  S
O3           C11   1.261       .  A
O4           C11   1.259       .  A
C5           O12   1.260       .  A
C5            O6   1.257       .  A
C5          C585   1.473       .  S
C7            O9   1.258       .  A
C7           O13   1.261       .  A
C7          C574   1.470       .  S
C11         C581   1.469       .  S
In14         O16   2.248       .  S
In14         O17   2.250       .  S
In14         O25   2.249       .  S
In14         O19   2.239       .  S
In14         O21   2.258       .  S
In14         O22   2.241       .  S
In14         O23   2.246       .  S
In14         O26   2.256       .  S
C15          O21   1.257       .  A
C15          O23   1.260       .  A
C15         C557   1.475       .  S
O16          C24   1.261       .  A
O17          C24   1.259       .  A
C18          O25   1.262       .  A
C18          O19   1.259       .  A
C18         C569   1.472       .  S
C20          O22   1.258       .  A
C20          O26   1.261       .  A
C20         C561   1.471       .  S
C24         C565   1.474       .  S
C27          C28   1.547       .  S
C27          C33   1.531       .  S
C27          C31   1.541       .  S
C27         C545   1.523       .  S
C28          H35   1.079       .  S
C28          C29   1.372       .  D
C29          C30   1.534       .  S
C29         C570   1.486       .  S
C30          C34   1.537       .  S
C30          C32   1.540       .  S
C30          H36   1.109       .  S
C31          H37   1.087       .  S
C31          C32   1.361       .  D
C32         C551   1.481       .  S
C33          H38   1.087       .  S
C33          C34   1.358       .  D
C34         C555   1.441       .  S
C39          C40   1.546       .  S
C39          C45   1.531       .  S
C39          C43   1.538       .  S
C39         C526   1.523       .  S
C40          H47   1.080       .  S
C40          C41   1.374       .  D
C41          C42   1.538       .  S
C41         C566   1.486       .  S
C42          C46   1.538       .  S
C42          C44   1.540       .  S
C42          H48   1.108       .  S
C43          H49   1.087       .  S
C43          C44   1.361       .  D
C44         C535   1.483       .  S
C45          H50   1.087       .  S
C45          C46   1.357       .  D
C46         C540   1.440       .  S
C51          C52   1.536       .  S
C51          C57   1.541       .  S
C51          C55   1.547       .  S
C51         C510   1.526       .  S
C52          H59   1.084       .  S
C52          C53   1.372       .  D
C53          C54   1.533       .  S
C53         C582   1.481       .  S
C54          C58   1.528       .  S
C54          C56   1.530       .  S
C54          H60   1.112       .  S
C55          H61   1.083       .  S
C55          C56   1.370       .  D
C56         C519   1.480       .  S
C57          H62   1.086       .  S
C57          C58   1.357       .  D
C58         C524   1.436       .  S
C63          C64   1.536       .  S
C63          C69   1.540       .  S
C63          C67   1.547       .  S
C63         C494   1.527       .  S
C64          H71   1.084       .  S
C64          C65   1.372       .  D
C65          C66   1.536       .  S
C65         C586   1.486       .  S
C66          C70   1.534       .  S
C66          C68   1.532       .  S
C66          H72   1.112       .  S
C67          H73   1.082       .  S
C67          C68   1.370       .  D
C68         C503   1.484       .  S
C69          H74   1.085       .  S
C69          C70   1.358       .  D
C70         C508   1.443       .  S
In75         O86   2.244   1_565  S
In75         O80   2.246   1_565  S
In75         O83   2.237   1_465  S
In75         O87   2.235   1_465  S
In75        O665   2.246       .  S
In75        O666   2.240       .  S
In75        O670   2.250   1_455  S
In75        O672   2.246   1_455  S
C76          O82   1.262       .  A
C76          O84   1.258       .  A
C76         C507   1.437       .  S
O77        In663   2.244       .  S
O77          C85   1.259       .  A
O78        In663   2.246       .  S
O78          C85   1.261       .  A
C79          O86   1.258       .  A
C79          O80   1.261       .  A
C79         C539   1.434       .  S
C81          O83   1.262       .  A
C81          O87   1.260       .  A
C81         C523   1.430       .  S
O82        In663   2.251   1_655  S
O84        In663   2.247   1_655  S
C85         C556   1.435       .  S
In88         O90   2.244       .  S
In88         O91   2.255       .  S
In88         O99   2.252       .  S
In88         O93   2.263       .  S
In88         O95   2.261       .  S
In88         O96   2.257       .  S
In88         O97   2.246       .  S
In88        O100   2.268       .  S
C89          O95   1.260       .  A
C89          O97   1.260       .  A
C89         C477   1.478       .  S
O90          C98   1.262       .  A
O91          C98   1.262       .  A
C92          O99   1.257       .  A
C92          O93   1.260       .  A
C92         C485   1.476       .  S
C94          O96   1.258       .  A
C94         O100   1.259       .  A
C94         C489   1.478       .  S
C98         C482   1.478       .  S
In101       O103   2.251       .  S
In101       O104   2.228       .  S
In101       O112   2.257       .  S
In101       O106   2.220       .  S
In101       O108   2.241       .  S
In101       O109   2.227       .  S
In101       O110   2.245       .  S
In101       O113   2.260       .  S
C102        O108   1.260       .  A
C102        O110   1.263       .  A
C102        C461   1.472       .  S
O103        C111   1.262       .  A
O104        C111   1.257       .  A
C105        O112   1.260       .  A
C105        O106   1.256       .  A
C105        C473   1.462       .  S
C107        O109   1.255       .  A
C107        O113   1.261       .  A
C107        C469   1.466       .  S
C111        C465   1.467       .  S
C114        C115   1.531       .  S
C114        C120   1.538       .  S
C114        C118   1.546       .  S
C114        C542   1.525       .  S
C115        H122   1.087       .  S
C115        C116   1.359       .  D
C116        C117   1.534       .  S
C116        C459   1.435       .  S
C117        C121   1.536       .  S
C117        C119   1.535       .  S
C117        H123   1.112       .  S
C118        H124   1.084       .  S
C118        C119   1.370       .  D
C119        C455   1.489       .  S
C120        H125   1.079       .  S
C120        C121   1.367       .  D
C121        C474   1.482       .  S
C126        C127   1.534       .  S
C126        C132   1.542       .  S
C126        C130   1.544       .  S
C126        C529   1.525       .  S
C127        H134   1.087       .  S
C127        C128   1.358       .  D
C128        C129   1.531       .  S
C128        C453   1.437       .  S
C129        C133   1.531       .  S
C129        C131   1.542       .  S
C129        H135   1.107       .  S
C130        H136   1.086       .  S
C130        C131   1.367       .  D
C131        C450   1.487       .  S
C132        H137   1.081       .  S
C132        C133   1.367       .  D
C133        C470   1.478       .  S
C138        C139   1.539       .  S
C138        C144   1.534       .  S
C138        C142   1.543       .  S
C138        C513   1.526       .  S
C139        H146   1.085       .  S
C139        C140   1.358       .  D
C140        C141   1.538       .  S
C140        C448   1.444       .  S
C141        C145   1.541       .  S
C141        C143   1.536       .  S
C141        H147   1.111       .  S
C142        H148   1.083       .  S
C142        C143   1.370       .  D
C143        C443   1.486       .  S
C144        H149   1.084       .  S
C144        C145   1.371       .  D
C145        C490   1.491       .  S
C150        C151   1.539       .  S
C150        C156   1.534       .  S
C150        C154   1.549       .  S
C150        C497   1.526       .  S
C151        H158   1.086       .  S
C151        C152   1.359       .  D
C152        C153   1.536       .  S
C152        C442   1.443       .  S
C153        C157   1.543       .  S
C153        C155   1.535       .  S
C153        H159   1.109       .  S
C154        H160   1.083       .  S
C154        C155   1.371       .  D
C155        C437   1.487       .  S
C156        H161   1.087       .  S
C156        C157   1.366       .  D
C157        C486   1.487       .  S
In162       O164   2.238   1_565  S
In162       O165   2.237   1_565  S
In162       O173   2.246   1_465  S
In162       O167   2.255   1_465  S
In162       O757   2.253       .  S
In162       O758   2.240   1_455  S
In162       O759   2.250       .  S
In162       O762   2.242   1_455  S
C163        O169   1.261       .  A
C163        O171   1.259       .  A
C163        C460   1.429       .  S
O164        C172   1.260       .  A
O165        C172   1.261       .  A
C166        O173   1.258       .  A
C166        O167   1.262       .  A
C166        C447   1.438       .  S
C168        O170   1.262       .  A
C168        O174   1.258       .  A
C168        C441   1.436       .  S
O169       In750   2.235       .  S
O170       In750   2.250   1_655  S
O171       In750   2.238       .  S
C172        C454   1.431       .  S
O174       In750   2.245   1_655  S
In175       O182   2.244       .  S
In175       O183   2.253       .  S
In175       O184   2.251       .  S
In175       O187   2.239       .  S
In175       O765   2.239   1_545  S
In175       O766   2.258   1_545  S
In175       O774   2.251   1_545  S
In175       O768   2.246   1_545  S
C176        O182   1.261       .  A
C176        O184   1.258       .  A
C176        C536   1.474       .  S
O177       In763   2.237       .  S
O177        C185   1.259       .  A
O178       In763   2.248       .  S
O178        C185   1.263       .  A
C179        O186   1.259       .  A
C179        O180   1.265       .  A
C179        C434   1.479       .  S
O180       In763   2.262       .  S
C181        O183   1.260       .  A
C181        O187   1.260       .  A
C181        C429   1.474       .  S
C185        C552   1.471       .  S
O186       In763   2.240       .  S
In188       O190   2.245       .  S
In188       O191   2.246       .  S
In188       O199   2.252       .  S
In188       O193   2.262       .  S
In188       O783   2.253       .  S
In188       O784   2.244       .  S
In188       O785   2.240       .  S
In188       O788   2.250       .  S
C189        O195   1.259       .  A
C189        O197   1.262       .  A
C189        C520   1.469       .  S
O190        C198   1.261       .  A
O191        C198   1.258       .  A
C192        O199   1.260       .  A
C192        O193   1.260       .  A
C192        C425   1.479       .  S
C194        O196   1.258       .  A
C194        O200   1.258       .  A
C194        C421   1.479       .  S
O195       In776   2.243       .  S
O196       In776   2.264       .  S
O197       In776   2.237       .  S
C198        C504   1.472       .  S
O200       In776   2.255       .  S
C201        C202   1.535       .  S
C201        C207   1.553       .  S
C201        C205   1.538       .  S
C201        C410   1.529       .  S
C202        H209   1.087       .  S
C202        C203   1.359       .  D
C203        C204   1.536       .  S
C203        C419   1.445       .  S
C204        C208   1.535       .  S
C204        C206   1.539       .  S
C204        H210   1.110       .  S
C205        H211   1.087       .  S
C205        C206   1.361       .  D
C206        C578   1.479       .  S
C207        H212   1.081       .  S
C207        C208   1.375       .  D
C208        C422   1.488       .  S
C213        C214   1.531       .  S
C213        C219   1.537       .  S
C213        C217   1.548       .  S
C213        C398   1.528       .  S
C214        H221   1.087       .  S
C214        C215   1.359       .  D
C215        C216   1.540       .  S
C215        C407   1.445       .  S
C216        C220   1.550       .  S
C216        C218   1.533       .  S
C216        H222   1.108       .  S
C217        H223   1.079       .  S
C217        C218   1.368       .  D
C218        C562   1.485       .  S
C219        H224   1.087       .  S
C219        C220   1.367       .  D
C220        C433   1.492       .  S
C225        C226   1.545       .  S
C225        C231   1.538       .  S
C225        C229   1.546       .  S
C225        C386   1.529       .  S
C226        H233   1.082       .  S
C226        C227   1.357       .  D
C227        C228   1.528       .  S
C227        C395   1.440       .  S
C228        C232   1.535       .  S
C228        C230   1.533       .  S
C228        H234   1.112       .  S
C229        H235   1.084       .  S
C229        C230   1.372       .  D
C230        C558   1.484       .  S
C231        H236   1.084       .  S
C231        C232   1.370       .  D
C232        C430   1.486       .  S
C237        C238   1.545       .  S
C237        C243   1.542       .  S
C237        C241   1.542       .  S
C237        C374   1.531       .  S
C238        H245   1.082       .  S
C238        C239   1.357       .  D
C239        C240   1.529       .  S
C239        C384   1.441       .  S
C240        C244   1.536       .  S
C240        C242   1.532       .  S
C240        H246   1.112       .  S
C241        H247   1.084       .  S
C241        C242   1.369       .  D
C242        C573   1.482       .  S
C243        H248   1.084       .  S
C243        C244   1.373       .  D
C244        C426   1.490       .  S
In249       O251   2.245       .  S
In249       O252   2.238       .  S
In249       O260   2.247       .  S
In249       O254   2.258       .  S
In249       O256   2.257       .  S
In249       O257   2.242       .  S
In249       O258   2.251       .  S
In249       O261   2.248       .  S
C250        O256   1.261       .  A
C250        O258   1.258       .  A
C250        C420   1.439       .  S
O251        C259   1.260       .  A
O252        C259   1.261       .  A
C253        O260   1.257       .  A
C253        O254   1.262       .  A
C253        C408   1.439       .  S
C255        O257   1.259       .  A
C255        O261   1.259       .  A
C255        C396   1.434       .  S
C259        C383   1.434       .  S
In262       O264   2.254       .  S
In262       O265   2.237       .  S
In262       O269   2.253       .  S
In262       O271   2.240       .  S
In262       O861   2.248       .  S
In262       O855   2.243       .  S
In262       O858   2.251       .  S
In262       O862   2.226       .  S
C263        O269   1.264       .  A
C263        O271   1.262       .  A
C263        C456   1.478       .  S
O264        C272   1.260       .  A
O265        C272   1.262       .  A
C266        O273   1.260       .  A
C266        O267   1.267       .  A
C266        C369   1.478       .  S
O267       In850   2.252   1_545  S
C268        O270   1.266       .  A
C268        O274   1.261       .  A
C268        C449   1.471       .  S
O270       In850   2.252   1_545  S
C272        C365   1.476       .  S
O273       In850   2.238   1_545  S
O274       In850   2.224   1_545  S
In275       O286   2.246       .  S
In275       O280   2.254       .  S
In275       O283   2.244       .  S
In275       O287   2.248       .  S
In275       O865   2.251   1_545  S
In275       O866   2.250   1_545  S
In275       O870   2.245   1_545  S
In275       O872   2.250   1_545  S
C276        O282   1.261       .  A
C276        O284   1.262       .  A
C276        C438   1.476       .  S
O277       In863   2.243       .  S
O277        C285   1.257       .  A
O278       In863   2.259       .  S
O278        C285   1.261       .  A
C279        O286   1.258       .  A
C279        O280   1.258       .  A
C279        C358   1.471       .  S
C281        O283   1.259       .  A
C281        O287   1.260       .  A
C281        C444   1.471       .  S
O282       In863   2.255       .  S
O284       In863   2.246       .  S
C285        C362   1.473       .  S
C288        C289   1.533       .  S
C288        C294   1.535       .  S
C288        C292   1.547       .  S
C288        C401   1.530       .  S
C289        H296   1.087       .  S
C289        C290   1.365       .  D
C290        C291   1.547       .  S
C290        C366   1.485       .  S
C291        C295   1.537       .  S
C291        C293   1.531       .  S
C291        H297   1.109       .  S
C292        H298   1.078       .  S
C292        C293   1.369       .  D
C293        C466   1.482       .  S
C294        H299   1.087       .  S
C294        C295   1.362       .  D
C295        C356   1.444       .  S
C300        C301   1.530       .  S
C300        C306   1.543       .  S
C300        C304   1.545       .  S
C300        C389   1.528       .  S
C301        H308   1.087       .  S
C301        C302   1.364       .  D
C302        C303   1.551       .  S
C302        C370   1.490       .  S
C303        C307   1.537       .  S
C303        C305   1.532       .  S
C303        H309   1.108       .  S
C304        H310   1.086       .  S
C304        C305   1.371       .  D
C305        C462   1.479       .  S
C306        H311   1.083       .  S
C306        C307   1.358       .  D
C307        C353   1.447       .  S
C312        C313   1.535       .  S
C312        C318   1.542       .  S
C312        C316   1.547       .  S
C312        C377   1.530       .  S
C313        H320   1.087       .  S
C313        C314   1.364       .  D
C314        C315   1.544       .  S
C314        C361   1.486       .  S
C315        C319   1.536       .  S
C315        C317   1.536       .  S
C315        H321   1.109       .  S
C316        H322   1.084       .  S
C316        C317   1.373       .  D
C317        C481   1.487       .  S
C318        H323   1.083       .  S
C318        C319   1.356       .  D
C319        C351   1.445       .  S
C324        C325   1.544       .  S
C324        C330   1.537       .  S
C324        C328   1.546       .  S
C324        C413   1.531       .  S
C325        H332   1.080       .  S
C325        C326   1.368       .  D
C326        C327   1.534       .  S
C326        C357   1.482       .  S
C327        C331   1.534       .  S
C327        C329   1.536       .  S
C327        H333   1.112       .  S
C328        H334   1.084       .  S
C328        C329   1.372       .  D
C329        C478   1.488       .  S
C330        H335   1.087       .  S
C330        C331   1.360       .  D
C331        C349   1.443       .  S
In336       O338   2.242       .  S
In336       O339   2.254       .  S
In336       O347   2.248       .  S
In336       O341   2.255       .  S
In336       O343   2.254       .  S
In336       O344   2.247       .  S
In336       O345   2.251       .  S
In336       O348   2.254       .  S
C337        O343   1.262       .  A
C337        O345   1.259       .  A
C337        C354   1.441       .  S
O338        C346   1.258       .  A
O339        C346   1.262       .  A
C340        O347   1.258       .  A
C340        O341   1.262       .  A
C340        C352   1.438       .  S
C342        O344   1.261       .  A
C342        O348   1.260       .  A
C342        C355   1.438       .  S
C346        C350   1.437       .  S
C349        C350   1.206       .  T
C351        C352   1.208       .  T
C353        C354   1.209       .  T
C355        C356   1.207       .  T
C357        H359   1.086       .  S
C357        C358   1.343       .  D
C358        H360   1.086       .  S
C361        H363   1.087       .  S
C361        C362   1.342       .  D
C362        H364   1.083       .  S
C365        H367   1.083       .  S
C365        C366   1.342       .  D
C366        H368   1.088       .  S
C369        H371   1.083       .  S
C369        C370   1.341       .  D
C370        H372   1.087       .  S
C373        C374   1.407       .  A
C373        C378   1.393       .  A
C373        H379   1.077       .  S
C374        C375   1.409       .  A
C375        C376   1.402       .  A
C375        H380   1.083       .  S
C376        C377   1.408       .  A
C376        H381   1.083       .  S
C377        C378   1.408       .  A
C378        H382   1.077       .  S
C383        C384   1.205       .  T
C385        C386   1.408       .  A
C385        C390   1.392       .  A
C385        H391   1.077       .  S
C386        C387   1.408       .  A
C387        C388   1.401       .  A
C387        H392   1.083       .  S
C388        C389   1.409       .  A
C388        H393   1.083       .  S
C389        C390   1.407       .  A
C390        H394   1.077       .  S
C395        C396   1.205       .  T
C397        C398   1.407       .  A
C397        C402   1.398   1_554  A
C397        H403   1.083       .  S
C398        C399   1.408       .  A
C399        C400   1.395   1_554  A
C399        H404   1.076       .  S
C400        C401   1.409       .  A
C400        H405   1.075       .  S
C401        C402   1.407       .  A
C402        H406   1.083       .  S
C407        C408   1.208       .  T
C409        C410   1.406       .  A
C409        C414   1.401   1_554  A
C409        H415   1.078       .  S
C410        C411   1.409       .  A
C411        C412   1.396   1_554  A
C411        H416   1.083       .  S
C412        C413   1.405       .  A
C412        H417   1.083       .  S
C413        C414   1.412       .  A
C414        H418   1.077       .  S
C419        C420   1.208       .  T
C421        H423   1.085       .  S
C421        C422   1.345       .  D
C422        H424   1.087       .  S
C425        H427   1.084       .  S
C425        C426   1.346       .  D
C426        H428   1.087       .  S
C429        H431   1.083       .  S
C429        C430   1.345       .  D
C430        H432   1.087       .  S
C433        H435   1.087       .  S
C433        C434   1.343       .  D
C434        H436   1.083       .  S
C437        H439   1.086       .  S
C437        C438   1.345       .  D
C438        H440   1.083       .  S
C441        C442   1.206       .  T
C443        H445   1.086       .  S
C443        C444   1.344       .  D
C444        H446   1.083       .  S
C447        C448   1.207       .  T
C449        H451   1.082       .  S
C449        C450   1.343       .  D
C450        H452   1.087       .  S
C453        C454   1.203       .  T
C455        H457   1.086       .  S
C455        C456   1.347       .  D
C456        H458   1.083       .  S
C459        C460   1.202       .  T
C461        H463   1.086       .  S
C461        C462   1.340       .  D
C462        H464   1.087       .  S
C465        H467   1.085       .  S
C465        C466   1.341       .  D
C466        H468   1.086       .  S
C469        H471   1.087       .  S
C469        C470   1.341       .  D
C470        H472   1.086       .  S
C473        H475   1.084       .  S
C473        C474   1.344       .  D
C474        H476   1.086       .  S
C477        H479   1.084       .  S
C477        C478   1.346       .  D
C478        H480   1.087       .  S
C481        H483   1.087       .  S
C481        C482   1.345       .  D
C482        H484   1.084       .  S
C485        H487   1.083       .  S
C485        C486   1.344       .  D
C486        H488   1.086       .  S
C489        H491   1.084       .  S
C489        C490   1.347       .  D
C490        H492   1.086       .  S
C493        C494   1.408       .  A
C493        C498   1.398   1_554  A
C493        H499   1.082       .  S
C494        C495   1.408       .  A
C495        C496   1.397   1_554  A
C495        H500   1.081       .  S
C496        C497   1.408       .  A
C496        H501   1.082       .  S
C497        C498   1.408       .  A
C498        H502   1.082       .  S
C503        H505   1.086       .  S
C503        C504   1.343       .  D
C504        H506   1.083       .  S
C507        C508   1.207       .  T
C509        C510   1.408       .  A
C509        C514   1.399       .  A
C509        H515   1.082       .  S
C510        C511   1.407       .  A
C511        C512   1.395       .  A
C511        H516   1.082       .  S
C512        C513   1.407       .  A
C512        H517   1.081       .  S
C513        C514   1.409       .  A
C514        H518   1.082       .  S
C519        H521   1.087       .  S
C519        C520   1.341       .  D
C520        H522   1.084       .  S
C523        C524   1.203       .  T
C525        C526   1.407       .  A
C525        C530   1.400   1_554  A
C525        H531   1.078       .  S
C526        C527   1.407       .  A
C527        C528   1.391   1_554  A
C527        H532   1.083       .  S
C528        C529   1.404       .  A
C528        H533   1.083       .  S
C529        C530   1.411       .  A
C530        H534   1.077       .  S
C535        H537   1.087       .  S
C535        C536   1.342       .  D
C536        H538   1.083       .  S
C539        C540   1.205       .  T
C541        C542   1.405       .  A
C541        C546   1.393       .  A
C541        H547   1.083       .  S
C542        C543   1.411       .  A
C543        C544   1.397       .  A
C543        H548   1.076       .  S
C544        C545   1.407       .  A
C544        H549   1.078       .  S
C545        C546   1.406       .  A
C546        H550   1.083       .  S
C551        H553   1.087       .  S
C551        C552   1.341       .  D
C552        H554   1.084       .  S
C555        C556   1.205       .  T
C557        H559   1.084       .  S
C557        C558   1.342       .  D
C558        H560   1.087       .  S
C561        H563   1.085       .  S
C561        C562   1.344       .  D
C562        H564   1.086       .  S
C565        H567   1.084       .  S
C565        C566   1.343       .  D
C566        H568   1.087       .  S
C569        H571   1.084       .  S
C569        C570   1.343       .  D
C570        H572   1.087       .  S
C573        H575   1.087       .  S
C573        C574   1.342       .  D
C574        H576   1.083       .  S
C577        H579   1.085       .  S
C577        C578   1.342       .  D
C578        H580   1.087       .  S
C581        H583   1.084       .  S
C581        C582   1.341       .  D
C582        H584   1.087       .  S
C585        H587   1.083       .  S
C585        C586   1.343       .  D
C586        H588   1.086       .  S
In589       O591   2.261       .  S
In589       O592   2.270       .  S
In589       O600   2.257       .  S
In589       O594   2.271       .  S
In589       O596   2.263       .  S
In589       O597   2.245       .  S
In589       O598   2.252       .  S
In589       O601   2.250       .  S
C590        O596   1.260       .  A
C590        O598   1.260       .  A
C590       C1165   1.478       .  S
O591        C599   1.259       .  A
O592        C599   1.259       .  A
C593        O600   1.257       .  A
C593        O594   1.259       .  A
C593       C1173   1.479       .  S
C595        O597   1.260       .  A
C595        O601   1.263       .  A
C595       C1162   1.474       .  S
C599       C1169   1.482       .  S
In602       O604   2.249       .  S
In602       O605   2.237       .  S
In602       O613   2.244       .  S
In602       O607   2.244       .  S
In602       O609   2.243       .  S
In602       O610   2.251       .  S
In602       O611   2.242       .  S
In602       O614   2.241       .  S
C603        O609   1.259       .  A
C603        O611   1.261       .  A
C603       C1145   1.470       .  S
O604        C612   1.259       .  A
O605        C612   1.259       .  A
C606        O613   1.261       .  A
C606        O607   1.257       .  A
C606       C1157   1.470       .  S
C608        O610   1.259       .  A
C608        O614   1.261       .  A
C608       C1149   1.473       .  S
C612       C1153   1.469       .  S
C615        C616   1.539       .  S
C615        C621   1.540       .  S
C615        C619   1.542       .  S
C615       C1133   1.522       .  S
C616        H623   1.085       .  S
C616        C617   1.372       .  D
C617        C618   1.534       .  S
C617       C1158   1.481       .  S
C618        C622   1.533       .  S
C618        C620   1.541       .  S
C618        H624   1.108       .  S
C619        H625   1.087       .  S
C619        C620   1.361       .  D
C620       C1139   1.484       .  S
C621        H626   1.082       .  S
C621        C622   1.357       .  D
C622       C1143   1.439       .  S
C627        C628   1.542       .  S
C627        C633   1.533       .  S
C627        C631   1.537       .  S
C627       C1114   1.521       .  S
C628        H635   1.080       .  S
C628        C629   1.368       .  D
C629        C630   1.537       .  S
C629       C1154   1.482       .  S
C630        C634   1.540       .  S
C630        C632   1.546       .  S
C630        H636   1.108       .  S
C631        H637   1.087       .  S
C631        C632   1.361       .  D
C632       C1123   1.486       .  S
C633        H638   1.087       .  S
C633        C634   1.360       .  D
C634       C1128   1.447       .  S
C639        C640   1.545       .  S
C639        C645   1.543       .  S
C639        C643   1.541       .  S
C639       C1098   1.532       .  S
C640        H647   1.085       .  S
C640        C641   1.375       .  D
C641        C642   1.536       .  S
C641       C1170   1.489       .  S
C642        C646   1.535       .  S
C642        C644   1.540       .  S
C642        H648   1.110       .  S
C643        H649   1.086       .  S
C643        C644   1.360       .  D
C644       C1107   1.482       .  S
C645        H650   1.084       .  S
C645        C646   1.359       .  D
C646       C1112   1.443       .  S
C651        C652   1.538       .  S
C651        C657   1.541       .  S
C651        C655   1.544       .  S
C651       C1082   1.530       .  S
C652        H659   1.085       .  S
C652        C653   1.371       .  D
C653        C654   1.539       .  S
C653       C1174   1.487       .  S
C654        C658   1.537       .  S
C654        C656   1.542       .  S
C654        H660   1.108       .  S
C655        H661   1.086       .  S
C655        C656   1.364       .  D
C656       C1091   1.487       .  S
C657        H662   1.085       .  S
C657        C658   1.359       .  D
C658       C1096   1.444       .  S
In663       O674   2.257       .  S
In663       O668   2.254       .  S
In663       O671   2.248   1_455  S
In663       O675   2.248   1_455  S
C664        O670   1.261       .  A
C664        O672   1.259       .  A
C664       C1095   1.437       .  S
O665        C673   1.259       .  A
O666        C673   1.260       .  A
C667        O674   1.259       .  A
C667        O668   1.260       .  A
C667       C1127   1.441       .  S
C669        O671   1.260       .  A
C669        O675   1.259       .  A
C669       C1111   1.436       .  S
C673       C1144   1.433       .  S
In676       O678   2.247       .  S
In676       O679   2.251       .  S
In676       O687   2.233       .  S
In676       O681   2.259       .  S
In676       O683   2.247       .  S
In676       O684   2.252       .  S
In676       O685   2.250       .  S
In676       O688   2.248       .  S
C677        O683   1.259       .  A
C677        O685   1.262       .  A
C677       C1065   1.474       .  S
O678        C686   1.261       .  A
O679        C686   1.259       .  A
C680        O687   1.258       .  A
C680        O681   1.258       .  A
C680       C1073   1.470       .  S
C682        O684   1.258       .  A
C682        O688   1.260       .  A
C682       C1077   1.474       .  S
C686       C1070   1.474       .  S
In689       O691   2.240       .  S
In689       O692   2.246       .  S
In689       O700   2.256       .  S
In689       O694   2.266       .  S
In689       O696   2.259       .  S
In689       O697   2.257       .  S
In689       O698   2.256       .  S
In689       O701   2.265       .  S
C690        O696   1.260       .  A
C690        O698   1.260       .  A
C690       C1049   1.479       .  S
O691        C699   1.262       .  A
O692        C699   1.261       .  A
C693        O700   1.256       .  A
C693        O694   1.263       .  A
C693       C1061   1.480       .  S
C695        O697   1.257       .  A
C695        O701   1.258       .  A
C695       C1057   1.476       .  S
C699       C1053   1.473       .  S
C702        C703   1.539       .  S
C702        C708   1.528       .  S
C702        C706   1.539       .  S
C702       C1130   1.520       .  S
C703        H710   1.082       .  S
C703        C704   1.360       .  D
C704        C705   1.543       .  S
C704       C1047   1.445       .  S
C705        C709   1.551       .  S
C705        C707   1.549       .  S
C705        H711   1.105       .  S
C706        H712   1.087       .  S
C706        C707   1.364       .  D
C707       C1043   1.488       .  S
C708        H713   1.087       .  S
C708        C709   1.361       .  D
C709       C1062   1.488       .  S
C714        C715   1.532       .  S
C714        C720   1.544       .  S
C714        C718   1.539       .  S
C714       C1117   1.522       .  S
C715        H722   1.087       .  S
C715        C716   1.358       .  D
C716        C717   1.538       .  S
C716       C1041   1.444       .  S
C717        C721   1.539       .  S
C717        C719   1.547       .  S
C717        H723   1.107       .  S
C718        H724   1.087       .  S
C718        C719   1.363       .  D
C719       C1038   1.485       .  S
C720        H725   1.079       .  S
C720        C721   1.369       .  D
C721       C1058   1.491       .  S
C726        C727   1.542       .  S
C726        C732   1.536       .  S
C726        C730   1.553       .  S
C726       C1101   1.529       .  S
C727        H734   1.085       .  S
C727        C728   1.356       .  D
C728        C729   1.531       .  S
C728       C1036   1.441       .  S
C729        C733   1.534       .  S
C729        C731   1.534       .  S
C729        H735   1.112       .  S
C730        H736   1.084       .  S
C730        C731   1.375       .  D
C731       C1031   1.488       .  S
C732        H737   1.085       .  S
C732        C733   1.368       .  D
C733       C1078   1.484       .  S
C738        C739   1.541       .  S
C738        C744   1.536       .  S
C738        C742   1.550       .  S
C738       C1085   1.529       .  S
C739        H746   1.085       .  S
C739        C740   1.358       .  D
C740        C741   1.530       .  S
C740       C1030   1.438       .  S
C741        C745   1.533       .  S
C741        C743   1.532       .  S
C741        H747   1.112       .  S
C742        H748   1.083       .  S
C742        C743   1.372       .  D
C743       C1025   1.487       .  S
C744        H749   1.085       .  S
C744        C745   1.369       .  D
C745       C1074   1.478       .  S
In750       O752   2.252       .  S
In750       O753   2.249       .  S
In750       O761   2.242   1_455  S
In750       O755   2.247   1_455  S
C751        O757   1.262       .  A
C751        O759   1.258       .  A
C751       C1048   1.440       .  S
O752        C760   1.259       .  A
O753        C760   1.261       .  A
C754        O761   1.259       .  A
C754        O755   1.260       .  A
C754       C1035   1.434       .  S
C756        O758   1.260       .  A
C756        O762   1.259       .  A
C756       C1029   1.432       .  S
C760       C1042   1.438       .  S
In763       O770   2.259       .  S
In763       O771   2.244       .  S
In763       O772   2.229       .  S
In763       O775   2.254       .  S
C764        O770   1.266       .  A
C764        O772   1.258       .  A
C764       C1124   1.473       .  S
O765        C773   1.258       .  A
O766        C773   1.262       .  A
C767        O774   1.263       .  A
C767        O768   1.260       .  A
C767       C1022   1.477       .  S
C769        O771   1.261       .  A
C769        O775   1.263       .  A
C769       C1017   1.478       .  S
C773       C1140   1.472       .  S
In776       O778   2.245   1_545  S
In776       O779   2.258   1_545  S
In776       O787   2.245   1_545  S
In776       O781   2.251   1_545  S
C777        O783   1.263       .  A
C777        O785   1.259       .  A
C777       C1108   1.473       .  S
O778        C786   1.259       .  A
O779        C786   1.262       .  A
C780        O787   1.260       .  A
C780        O781   1.258       .  A
C780       C1013   1.473       .  S
C782        O784   1.258       .  A
C782        O788   1.261       .  A
C782       C1009   1.471       .  S
C786       C1092   1.474       .  S
C789        C790   1.534       .  S
C789        C795   1.547       .  S
C789        C793   1.547       .  S
C789        C998   1.527       .  S
C790        H797   1.087       .  S
C790        C791   1.356       .  D
C791        C792   1.529       .  S
C791       C1007   1.434       .  S
C792        C796   1.532       .  S
C792        C794   1.533       .  S
C792        H798   1.112       .  S
C793        H799   1.085       .  S
C793        C794   1.371       .  D
C794       C1166   1.486       .  S
C795        H800   1.080       .  S
C795        C796   1.371       .  D
C796       C1010   1.483       .  S
C801        C802   1.539       .  S
C801        C807   1.542       .  S
C801        C805   1.546       .  S
C801        C986   1.528       .  S
C802        H809   1.085       .  S
C802        C803   1.353       .  D
C803        C804   1.528       .  S
C803        C995   1.433       .  S
C804        C808   1.535       .  S
C804        C806   1.533       .  S
C804        H810   1.112       .  S
C805        H811   1.083       .  S
C805        C806   1.370       .  D
C806       C1150   1.484       .  S
C807        H812   1.084       .  S
C807        C808   1.374       .  D
C808       C1021   1.488       .  S
C813        C814   1.542       .  S
C813        C819   1.541       .  S
C813        C817   1.542       .  S
C813        C974   1.530       .  S
C814        H821   1.083       .  S
C814        C815   1.357       .  D
C815        C816   1.529       .  S
C815        C983   1.437       .  S
C816        C820   1.537       .  S
C816        C818   1.533       .  S
C816        H822   1.112       .  S
C817        H823   1.084       .  S
C817        C818   1.370       .  D
C818       C1146   1.483       .  S
C819        H824   1.084       .  S
C819        C820   1.374       .  D
C820       C1018   1.491       .  S
C825        C826   1.539       .  S
C825        C831   1.538       .  S
C825        C829   1.549       .  S
C825        C962   1.529       .  S
C826        H833   1.086       .  S
C826        C827   1.359       .  D
C827        C828   1.531       .  S
C827        C972   1.438       .  S
C828        C832   1.534       .  S
C828        C830   1.533       .  S
C828        H834   1.112       .  S
C829        H835   1.080       .  S
C829        C830   1.370       .  D
C830       C1161   1.489       .  S
C831        H836   1.084       .  S
C831        C832   1.372       .  D
C832       C1014   1.484       .  S
In837       O839   2.243       .  S
In837       O840   2.243       .  S
In837       O848   2.235       .  S
In837       O842   2.237       .  S
In837       O844   2.237       .  S
In837       O845   2.237       .  S
In837       O846   2.232       .  S
In837       O849   2.243       .  S
C838        O844   1.260       .  A
C838        O846   1.259       .  A
C838       C1008   1.427       .  S
O839        C847   1.259       .  A
O840        C847   1.260       .  A
C841        O848   1.257       .  A
C841        O842   1.259       .  A
C841        C996   1.426       .  S
C843        O845   1.260       .  A
C843        O849   1.258       .  A
C843        C984   1.430       .  S
C847        C971   1.432       .  S
In850       O852   2.237       .  S
In850       O853   2.237       .  S
In850       O857   2.258       .  S
In850       O859   2.221       .  S
C851        O857   1.268       .  A
C851        O859   1.259       .  A
C851       C1044   1.473       .  S
O852        C860   1.260       .  A
O853        C860   1.266       .  A
C854        O861   1.258       .  A
C854        O855   1.264       .  A
C854        C957   1.475       .  S
C856        O858   1.265       .  A
C856        O862   1.259       .  A
C856       C1037   1.470       .  S
C860        C953   1.474       .  S
In863       O874   2.258       .  S
In863       O868   2.256       .  S
In863       O871   2.262       .  S
In863       O875   2.246       .  S
C864        O870   1.259       .  A
C864        O872   1.263       .  A
C864       C1026   1.474       .  S
O865        C873   1.260       .  A
O866        C873   1.258       .  A
C867        O874   1.258       .  A
C867        O868   1.256       .  A
C867        C946   1.473       .  S
C869        O871   1.261       .  A
C869        O875   1.262       .  A
C869       C1032   1.481       .  S
C873        C950   1.473       .  S
C876        C877   1.525       .  S
C876        C882   1.542       .  S
C876        C880   1.544       .  S
C876        C989   1.522       .  S
C877        H884   1.087       .  S
C877        C878   1.359       .  D
C878        C879   1.549       .  S
C878        C954   1.484       .  S
C879        C883   1.540       .  S
C879        C881   1.536       .  S
C879        H885   1.109       .  S
C880        H886   1.085       .  S
C880        C881   1.371       .  D
C881       C1054   1.483       .  S
C882        H887   1.085       .  S
C882        C883   1.363       .  D
C883        C944   1.449       .  S
C888        C889   1.526       .  S
C888        C894   1.540       .  S
C888        C892   1.547       .  S
C888        C977   1.525       .  S
C889        H896   1.087       .  S
C889        C890   1.359       .  D
C890        C891   1.547       .  S
C890        C958   1.484       .  S
C891        C895   1.538       .  S
C891        C893   1.539       .  S
C891        H897   1.109       .  S
C892        H898   1.084       .  S
C892        C893   1.376       .  D
C893       C1050   1.491       .  S
C894        H899   1.085       .  S
C894        C895   1.360       .  D
C895        C941   1.444       .  S
C900        C901   1.536       .  S
C900        C906   1.539       .  S
C900        C904   1.550       .  S
C900        C965   1.528       .  S
C901        H908   1.084       .  S
C901        C902   1.370       .  D
C902        C903   1.534       .  S
C902        C949   1.485       .  S
C903        C907   1.533       .  S
C903        C905   1.532       .  S
C903        H909   1.112       .  S
C904        H910   1.081       .  S
C904        C905   1.370       .  D
C905       C1069   1.486       .  S
C906        H911   1.086       .  S
C906        C907   1.360       .  D
C907        C939   1.442       .  S
C912        C913   1.544       .  S
C912        C918   1.536       .  S
C912        C916   1.543       .  S
C912       C1001   1.529       .  S
C913        H920   1.080       .  S
C913        C914   1.369       .  D
C914        C915   1.537       .  S
C914        C945   1.487       .  S
C915        C919   1.537       .  S
C915        C917   1.535       .  S
C915        H921   1.112       .  S
C916        H922   1.084       .  S
C916        C917   1.370       .  D
C917       C1066   1.486       .  S
C918        H923   1.087       .  S
C918        C919   1.361       .  D
C919        C937   1.446       .  S
In924       O926   2.250       .  S
In924       O927   2.257       .  S
In924       O935   2.247       .  S
In924       O929   2.246       .  S
In924       O931   2.243       .  S
In924       O932   2.256       .  S
In924       O933   2.254       .  S
In924       O936   2.259       .  S
C925        O931   1.260       .  A
C925        O933   1.260       .  A
C925        C942   1.438       .  S
O926        C934   1.258       .  A
O927        C934   1.262       .  A
C928        O935   1.259       .  A
C928        O929   1.260       .  A
C928        C940   1.435       .  S
C930        O932   1.261       .  A
C930        O936   1.259       .  A
C930        C943   1.443       .  S
C934        C938   1.440       .  S
C937        C938   1.208       .  T
C939        C940   1.206       .  T
C941        C942   1.207       .  T
C943        C944   1.210       .  T
C945        H947   1.086       .  S
C945        C946   1.345       .  D
C946        H948   1.085       .  S
C949        H951   1.087       .  S
C949        C950   1.343       .  D
C950        H952   1.084       .  S
C953        H955   1.083       .  S
C953        C954   1.338       .  D
C954        H956   1.088       .  S
C957        H959   1.084       .  S
C957        C958   1.339       .  D
C958        H960   1.088       .  S
C961        C962   1.408       .  A
C961        C966   1.399       .  A
C961        H967   1.083       .  S
C962        C963   1.408       .  A
C963        C964   1.397       .  A
C963        H968   1.080       .  S
C964        C965   1.408       .  A
C964        H969   1.080       .  S
C965        C966   1.408       .  A
C966        H970   1.082       .  S
C971        C972   1.204       .  T
C973        C974   1.408       .  A
C973        C978   1.394       .  A
C973        H979   1.078       .  S
C974        C975   1.408       .  A
C975        C976   1.400       .  A
C975        H980   1.083       .  S
C976        C977   1.408       .  A
C976        H981   1.083       .  S
C977        C978   1.407       .  A
C978        H982   1.079       .  S
C983        C984   1.203       .  T
C985        C986   1.409       .  A
C985        C990   1.394   1_554  A
C985        H991   1.080       .  S
C986        C987   1.407       .  A
C987        C988   1.399   1_554  A
C987        H992   1.083       .  S
C988        C989   1.409       .  A
C988        H993   1.083       .  S
C989        C990   1.405       .  A
C990        H994   1.080       .  S
C995        C996   1.200       .  T
C997        C998   1.409       .  A
C997       C1002   1.399   1_554  A
C997       H1003   1.077       .  S
C998        C999   1.407       .  A
C999       C1000   1.396   1_554  A
C999       H1004   1.083       .  S
C1000      C1001   1.406       .  A
C1000      H1005   1.083       .  S
C1001      C1002   1.410       .  A
C1002      H1006   1.077       .  S
C1007      C1008   1.201       .  T
C1009      H1011   1.085       .  S
C1009      C1010   1.342       .  D
C1010      H1012   1.087       .  S
C1013      H1015   1.084       .  S
C1013      C1014   1.342       .  D
C1014      H1016   1.087       .  S
C1017      H1019   1.083       .  S
C1017      C1018   1.345       .  D
C1018      H1020   1.087       .  S
C1021      H1023   1.087       .  S
C1021      C1022   1.343       .  D
C1022      H1024   1.084       .  S
C1025      H1027   1.087       .  S
C1025      C1026   1.343       .  D
C1026      H1028   1.083       .  S
C1029      C1030   1.204       .  T
C1031      H1033   1.087       .  S
C1031      C1032   1.344       .  D
C1032      H1034   1.084       .  S
C1035      C1036   1.205       .  T
C1037      H1039   1.082       .  S
C1037      C1038   1.340       .  D
C1038      H1040   1.087       .  S
C1041      C1042   1.207       .  T
C1043      H1045   1.087       .  S
C1043      C1044   1.340       .  D
C1044      H1046   1.082       .  S
C1047      C1048   1.208       .  T
C1049      H1051   1.084       .  S
C1049      C1050   1.346       .  D
C1050      H1052   1.087       .  S
C1053      H1055   1.085       .  S
C1053      C1054   1.344       .  D
C1054      H1056   1.086       .  S
C1057      H1059   1.084       .  S
C1057      C1058   1.348       .  D
C1058      H1060   1.086       .  S
C1061      H1063   1.084       .  S
C1061      C1062   1.341       .  D
C1062      H1064   1.088       .  S
C1065      H1067   1.084       .  S
C1065      C1066   1.344       .  D
C1066      H1068   1.086       .  S
C1069      H1071   1.086       .  S
C1069      C1070   1.344       .  D
C1070      H1072   1.083       .  S
C1073      H1075   1.085       .  S
C1073      C1074   1.341       .  D
C1074      H1076   1.087       .  S
C1077      H1079   1.085       .  S
C1077      C1078   1.343       .  D
C1078      H1080   1.087       .  S
C1081      C1082   1.409       .  A
C1081      C1086   1.399   1_554  A
C1081      H1087   1.082       .  S
C1082      C1083   1.408       .  A
C1083      C1084   1.398   1_554  A
C1083      H1088   1.081       .  S
C1084      C1085   1.409       .  A
C1084      H1089   1.081       .  S
C1085      C1086   1.407       .  A
C1086      H1090   1.082       .  S
C1091      H1093   1.087       .  S
C1091      C1092   1.343       .  D
C1092      H1094   1.083       .  S
C1095      C1096   1.207       .  T
C1097      C1098   1.411       .  A
C1097      C1102   1.402       .  A
C1097      H1103   1.083       .  S
C1098      C1099   1.406       .  A
C1099      C1100   1.395       .  A
C1099      H1104   1.079       .  S
C1100      C1101   1.409       .  A
C1100      H1105   1.081       .  S
C1101      C1102   1.407       .  A
C1102      H1106   1.082       .  S
C1107      H1109   1.087       .  S
C1107      C1108   1.341       .  D
C1108      H1110   1.084       .  S
C1111      C1112   1.206       .  T
C1113      C1114   1.407       .  A
C1113      C1118   1.395   1_554  A
C1113      H1119   1.077       .  S
C1114      C1115   1.406       .  A
C1115      C1116   1.393   1_554  A
C1115      H1120   1.083       .  S
C1116      C1117   1.406       .  A
C1116      H1121   1.083       .  S
C1117      C1118   1.408       .  A
C1118      H1122   1.077       .  S
C1123      H1125   1.087       .  S
C1123      C1124   1.340       .  D
C1124      H1126   1.083       .  S
C1127      C1128   1.209       .  T
C1129      C1130   1.407       .  A
C1129      C1134   1.396       .  A
C1129      H1135   1.077       .  S
C1130      C1131   1.406       .  A
C1131      C1132   1.392       .  A
C1131      H1136   1.083       .  S
C1132      C1133   1.405       .  A
C1132      H1137   1.083       .  S
C1133      C1134   1.409       .  A
C1134      H1138   1.077       .  S
C1139      H1141   1.087       .  S
C1139      C1140   1.342       .  D
C1140      H1142   1.083       .  S
C1143      C1144   1.204       .  T
C1145      H1147   1.083       .  S
C1145      C1146   1.342       .  D
C1146      H1148   1.086       .  S
C1149      H1151   1.083       .  S
C1149      C1150   1.343       .  D
C1150      H1152   1.087       .  S
C1153      H1155   1.085       .  S
C1153      C1154   1.344       .  D
C1154      H1156   1.086       .  S
C1157      H1159   1.085       .  S
C1157      C1158   1.341       .  D
C1158      H1160   1.087       .  S
C1161      H1163   1.086       .  S
C1161      C1162   1.345       .  D
C1162      H1164   1.083       .  S
C1165      H1167   1.085       .  S
C1165      C1166   1.344       .  D
C1166      H1168   1.086       .  S
C1169      H1171   1.086       .  S
C1169      C1170   1.345       .  D
C1170      H1172   1.087       .  S
C1173      H1175   1.086       .  S
C1173      C1174   1.346       .  D
C1174      H1176   1.087       .  S
