geometry optimzed in LAMMPS
_audit_creation_date              2020-11-30 
_audit_creation_method            'lammps2cif' 
_symmetry_space_group_name_H-M    'P1' 
_symmetry_Int_Tables_number       1 
_symmetry_cell_setting            triclinic 
loop_ 
_symmetry_equiv_pos_as_xyz 
  x,y,z 
_cell_length_a                    35.62173735 
_cell_length_b                    97.91275431136616 
_cell_length_c                    28.6389233872312 
_cell_angle_alpha                 90.34215747990552 
_cell_angle_beta                  89.28586718268221 
_cell_angle_gamma                 89.84118420815726 
loop_ 
_atom_site_label 
_atom_site_type_symbol 
_atom_site_fract_x 
_atom_site_fract_y 
_atom_site_fract_z 
_atom_site_charge 
C1          C  0.25036751  0.11100164  0.00373569     0.83100
N2          N  0.24250290  0.10369763  0.04300985    -0.75200
C3          C  0.24584599  0.08985266  0.04206921     0.85500
N4          N  0.25687915  0.08341812  0.00239322    -0.75200
C5          C  0.23469778  0.08845275  0.45959283     0.85600
N6          N  0.23814753  0.10227211  0.45888799    -0.76900
C7          C  0.19836266  0.98324502  0.25349756     0.83100
N8          N  0.20867126  0.97601827  0.21467679    -0.75200
C9          C  0.20867946  0.96215335  0.21564936     0.85500
N10         N  0.19869782  0.95556580  0.25518821    -0.75200
C11         C  0.18840012  0.96267379  0.29387999     0.85600
N12         N  0.18843320  0.97655905  0.29332906    -0.76900
C13         C  0.20180445  0.02499772  0.25185781     0.83100
N14         N  0.19571242  0.03207546  0.29232769    -0.75200
C15         C  0.19723641  0.04593416  0.29226371     0.85500
N16         N  0.20523625  0.05262759  0.25235211    -0.75200
C17         C  0.21144139  0.04569801  0.21213669     0.85600
N18         N  0.20980029  0.03182206  0.21160731    -0.76900
C19         C  0.28044259  0.90013300  0.00555815     0.83100
N20         N  0.26740966  0.90711813  0.04368628    -0.75200
C21         C  0.26883177  0.92098199  0.04443810     0.85500
N22         N  0.28300580  0.92779263  0.00734935    -0.75200
C23         C  0.20175892  0.92188301  0.47292510     0.85600
N24         N  0.20772788  0.90817227  0.47072786    -0.76900
C25         C  0.24229349  0.83330901  0.50120296     0.83100
N26         N  0.25925368  0.82516415  0.03889264    -0.75200
C27         C  0.25388247  0.81144438  0.03985040     0.85500
N28         N  0.24564233  0.80538017  0.49951601    -0.75200
C29         C  0.24340848  0.81261384  0.45822259     0.85600
N30         N  0.24159892  0.82648055  0.46008931    -0.76900
O31         O  0.24604241  0.79645622  0.31163868    -0.54900
C32         C  0.24895640  0.78776270  0.15085580     0.77700
O33         O  0.28945424  0.75671519  0.25130675    -0.56100
C34         C  0.24756843  0.78852888  0.34675081     0.77700
C35         C  0.17303143  0.76482955  0.24846757     0.80100
Cd36       Cd  0.24742562  0.77725078  0.24891572     1.37500
O37         O  0.24918479  0.79593888  0.18570062    -0.54900
O38         O  0.17742404  0.77764838  0.24941175    -0.53700
C39         C  0.32006530  0.76324884  0.24831386     0.80000
O40         O  0.20267231  0.75763757  0.24794624    -0.56100
O41         O  0.24802042  0.77523732  0.16121579    -0.54600
O42         O  0.24931169  0.77595247  0.33673453    -0.54600
O43         O  0.31742840  0.77611967  0.24551950    -0.53700
C44         C  0.99823532  0.67584456  0.49438110     0.83100
N45         N  0.99662593  0.68284572  0.45387656    -0.75200
C46         C  0.99639741  0.69675558  0.45341769     0.85500
N47         N  0.99762593  0.70381752  0.49543527    -0.75200
C48         C  0.00345154  0.69651690  0.04041736     0.85600
N49         N  0.00692353  0.68267245  0.03986414    -0.76900
O50         O  0.99900851  0.71373584  0.18550583    -0.54900
C51         C  0.49885498  0.72002741  0.34667871     0.77700
O52         O  0.03826349  0.75357098  0.24715300    -0.56100
C53         C  0.99709979  0.72142888  0.14988387     0.77700
C54         C  0.42363465  0.74436315  0.24870388     0.80100
Cd55       Cd  0.99596379  0.73311844  0.24753527     1.37500
O56         O  0.49936734  0.71211110  0.31118080    -0.54900
O57         O  0.42739516  0.73149829  0.24775670    -0.53700
C58         C  0.06873535  0.74686499  0.24725672     0.80000
O59         O  0.45365097  0.75125945  0.24992587    -0.56100
O60         O  0.49745732  0.73260512  0.33714758    -0.54600
O61         O  0.99442130  0.73403540  0.15916355    -0.54600
O62         O  0.06586359  0.73398925  0.24721726    -0.53700
O63         O  0.49963995  0.29454067  0.17232120    -0.54900
C64         C  0.99988533  0.28826335  0.34134230     0.77700
O65         O  0.45496038  0.25609101  0.23478322    -0.56100
C66         C  0.50243368  0.28640581  0.13747511     0.77700
C67         C  0.07166049  0.26419587  0.24093913     0.80100
Cd68       Cd  0.99777902  0.27682026  0.24385962     1.37500
O69         O  0.99732029  0.29607246  0.30605342    -0.54900
O70         O  0.06741217  0.27704087  0.24100994    -0.53700
C71         C  0.42539180  0.26316442  0.23005964     0.80000
O72         O  0.04201082  0.25705914  0.24271670    -0.56100
O73         O  0.00154843  0.27565371  0.33173689    -0.54600
O74         O  0.50378759  0.27387369  0.14771199    -0.54600
O75         O  0.42951754  0.27598072  0.22776571    -0.53700
C76         C  0.99581719  0.33367536  0.49376231     0.83100
N77         N  0.99174267  0.32512119  0.03568716    -0.75200
C78         C  0.99301690  0.31125527  0.03567927     0.85500
N79         N  0.99968396  0.30575062  0.49304037    -0.75200
C80         C  0.99839990  0.31286491  0.45145881     0.85600
N81         N  0.99644849  0.32674323  0.45279730    -0.76900
O82         O  0.25042166  0.21324022  0.29381750    -0.54900
C83         C  0.24655654  0.21520517  0.14839460     0.77700
O84         O  0.20617790  0.25255583  0.23173666    -0.56100
C85         C  0.25068311  0.22104333  0.32931047     0.77700
C86         C  0.32128660  0.24529714  0.22810551     0.80100
Cd87       Cd  0.24823989  0.23195235  0.23392793     1.37500
O88         O  0.24594729  0.21010633  0.18890696    -0.54900
O89         O  0.31784837  0.23275847  0.23728899    -0.53700
C90         C  0.17571296  0.24599744  0.23533062     0.80000
O91         O  0.29124937  0.25183299  0.22070329    -0.56100
O92         O  0.24788243  0.22810628  0.14666267    -0.54600
O93         O  0.24948174  0.23370457  0.32096928    -0.54600
O94         O  0.17848662  0.23315613  0.23777126    -0.53700
C95         C  0.25938563  0.17748394  0.48489517     0.83100
N96         N  0.24536662  0.18791254  0.02636499    -0.75200
C97         C  0.24595788  0.20170362  0.02036882     0.85500
N98         N  0.25570821  0.20508535  0.47515958    -0.75200
C99         C  0.25647515  0.19688670  0.43640523     0.85600
N100        N  0.25832075  0.18311577  0.44173037    -0.76900
C101        C  0.47997796  0.40038102  0.49101173     0.84300
N102        N  0.45861727  0.40762702  0.46080204    -0.75200
C103        C  0.45815625  0.42149372  0.46312278     0.85500
N104        N  0.47924744  0.42806789  0.49509838    -0.75200
C105        C  0.48119725  0.42023618  0.03275204     0.85600
N106        N  0.48392103  0.40636339  0.03251510    -0.76900
C107        C  0.07236054  0.52475349  0.25446541     0.83100
N108        N  0.07019662  0.53187402  0.21390317    -0.75200
C109        C  0.06698123  0.54570810  0.21511866     0.85500
N110        N  0.06558277  0.55235655  0.25662924    -0.75200
C111        C  0.06768962  0.54535244  0.29708031     0.85600
N112        N  0.07087623  0.53150958  0.29616160    -0.76900
C113        C  0.42323861  0.48204963  0.24923391     0.83100
N114        N  0.42899472  0.47483151  0.20890799    -0.75200
C115        C  0.42789752  0.46093412  0.20947956     0.85500
N116        N  0.42159337  0.45434115  0.25018868    -0.75200
C117        C  0.41587899  0.46144793  0.29031149     0.85600
N118        N  0.41703651  0.47531415  0.29001290    -0.76900
C119        C  0.00083968  0.60716560  0.50565026     0.83100
N120        N  0.02775525  0.59977674  0.03580614    -0.75200
C121        C  0.02588051  0.58590819  0.03634811     0.85500
N122        N  0.00146578  0.57946439  0.50816483    -0.75200
C123        C  0.01961538  0.58602318  0.47321233     0.85600
N124        N  0.01922457  0.59989326  0.47171855    -0.76900
C125        C  0.03728811  0.57803170  0.43693779    -0.15600
C126        C  0.47537263  0.56877819  0.40217475     0.08400
C127        C  0.46392418  0.55876854  0.36949695     0.10300
C128        C  0.06416463  0.55278490  0.34027012    -0.16500
C129        C  0.04023251  0.57818424  0.07469819    -0.15600
C130        C  0.04960497  0.57054118  0.10532264     0.08400
C131        C  0.45467541  0.56025270  0.14010754     0.10300
C132        C  0.06308662  0.55347624  0.17309519    -0.16500
C133        C  0.07450262  0.51003072  0.25326070    -0.10400
C134        C  0.07488028  0.49766858  0.25248039    -0.12000
C135        C  0.43772830  0.42942938  0.42998017    -0.15600
C136        C  0.42510875  0.43715705  0.40155689     0.08400
C137        C  0.04996812  0.44771805  0.36829914     0.10300
C138        C  0.41326494  0.45406151  0.33330695    -0.16500
C139        C  0.46632647  0.42761984  0.07245673    -0.15600
C140        C  0.05228734  0.43606508  0.10559528     0.08400
C141        C  0.44442231  0.44498420  0.13738934     0.10300
C142        C  0.43621032  0.45292941  0.16831774    -0.16500
C143        C  0.25234757  0.21588622  0.37812184    -0.13600
C144        C  0.25492576  0.20248524  0.38814076    -0.28700
H145        H  0.25156971  0.22333650  0.40638038     0.15500
H146        H  0.25578767  0.19514789  0.35951757     0.16000
C147        C  0.24644270  0.21103444  0.06178353    -0.13600
C148        C  0.24582862  0.20633087  0.10608716    -0.28700
H149        H  0.24737715  0.22199666  0.05569790     0.15500
H150        H  0.24483033  0.19536412  0.11204040     0.16000
C151        C  0.99341317  0.34839909  0.49441220    -0.15600
C152        C  0.99253426  0.35936813  0.99922504     0.08400
C153        C  0.98964234  0.37521351  0.49830100     0.10300
C154        C  0.98878176  0.38756302  0.50017845    -0.16500
C155        C  0.13948374  0.25274415  0.23690852    -0.10400
C156        C  0.10861691  0.25800847  0.23875813    -0.12000
C157        C  0.38862753  0.25695677  0.22777116    -0.10400
C158        C  0.35773861  0.25178460  0.22697611    -0.12000
C159        C  0.00078164  0.29321694  0.39144609    -0.13600
C160        C  0.99831210  0.30655789  0.40323108    -0.28700
H161        H  0.00328237  0.28568975  0.41893156     0.15500
H162        H  0.50273467  0.31203042  0.36812952     0.16000
C163        C  0.50275137  0.30421320  0.07515137    -0.13600
C164        C  0.50411896  0.29093971  0.08716819    -0.28700
H165        H  0.98404440  0.31190959  0.11169381     0.15500
H166        H  0.50675252  0.28322344  0.05993400     0.16000
C167        C  0.99864370  0.66107893  0.49441409    -0.15600
C168        C  0.01282860  0.64844472  0.99964879     0.08400
C169        C  0.50337000  0.63294253  0.99685135     0.10300
C170        C  0.00005300  0.62191428  0.50347741    -0.16500
C171        C  0.50191717  0.70194038  0.40873228    -0.13600
C172        C  0.50017032  0.71526074  0.39689928    -0.28700
H173        H  0.99191507  0.69597734  0.37673764     0.15500
H174        H  0.50029539  0.72293401  0.42442048     0.16000
C175        C  0.00236381  0.70302576  0.08842748    -0.13600
C176        C  0.99791400  0.71634467  0.09981392    -0.28700
H177        H  0.00529553  0.69594667  0.11725941     0.15500
H178        H  0.49680775  0.72241752  0.07348160     0.16000
C179        C  0.13598319  0.75872502  0.24796782    -0.10400
C180        C  0.10508932  0.75350388  0.24754367    -0.12000
C181        C  0.35630131  0.75639612  0.24824491    -0.10400
C182        C  0.38690740  0.75085746  0.24840426    -0.12000
C183        C  0.24288905  0.80648445  0.40972795    -0.13600
C184        C  0.24748841  0.79328752  0.39710885    -0.28700
H185        H  0.23910725  0.81377739  0.38160865     0.15500
H186        H  0.25127722  0.78569137  0.42420861     0.16000
C187        C  0.25019870  0.80546683  0.08805696    -0.13600
C188        C  0.25009995  0.79221130  0.10041724    -0.28700
H189        H  0.24898527  0.81292461  0.11631857     0.15500
H190        H  0.25160043  0.78442034  0.07331990     0.16000
C191        C  0.24004688  0.84802820  0.50216911    -0.15600
C192        C  0.23739803  0.86035056  0.50318046     0.08400
C193        C  0.23320811  0.87476379  0.50458647     0.10300
C194        C  0.27822986  0.88545426  0.00411670    -0.16500
C195        C  0.18064789  0.95521143  0.33577372    -0.15600
C196        C  0.17867242  0.94726522  0.36764453     0.08400
C197        C  0.18171482  0.93730051  0.40275282     0.10300
C198        C  0.18870681  0.92936426  0.43343622    -0.16500
C199        C  0.22073218  0.95422408  0.17604267    -0.15600
C200        C  0.23102417  0.94631558  0.14616812     0.08400
C201        C  0.24336611  0.93657239  0.11294176     0.10300
C202        C  0.25452450  0.92871854  0.08336472    -0.16500
C203        C  0.19911146  0.99795539  0.25271478    -0.10400
C204        C  0.20025317  0.01029183  0.25193122    -0.12000
C205        C  0.19339634  0.05382040  0.33423572    -0.15600
C206        C  0.19524748  0.06234401  0.36453756     0.08400
C207        C  0.20352207  0.07292177  0.39627947     0.10300
C208        C  0.21552231  0.08112898  0.42370631    -0.16500
C209        C  0.23764409  0.08163603  0.08210612    -0.15600
C210        C  0.23200198  0.07290129  0.11076725     0.08400
C211        C  0.22579808  0.06202445  0.14197345     0.10300
C212        C  0.21981768  0.05344714  0.17108247    -0.16500
C213        C  0.26078384  0.16277678  0.48948415    -0.15600
C214        C  0.24482622  0.15246920  0.99951538     0.08400
C215        C  0.24573606  0.13802434  0.00277824     0.10300
C216        C  0.26001748  0.12350969  0.49335106    -0.16500
C217        C  0.25722645  0.10877156  0.49340943     0.83100
N218        N  0.27278160  0.10137036  0.52846197    -0.75200
C219        C  0.26938088  0.08752560  0.52857023     0.85500
N220        N  0.25034411  0.08118904  0.49426072    -0.75200
C221        C  0.26471720  0.09060104  0.96343097     0.85600
N222        N  0.26144538  0.10442285  0.96386414    -0.76900
C223        C  0.29517819  0.98449345  0.75755065     0.83100
N224        N  0.28201682  0.97765867  0.71965813    -0.75200
C225        C  0.28017565  0.96381280  0.72004274     0.85500
N226        N  0.29137943  0.95684938  0.75797157    -0.75200
C227        C  0.30454102  0.96354731  0.79571713     0.85600
N228        N  0.30633473  0.97742623  0.79583894    -0.76900
C229        C  0.29825412  0.02620929  0.75093778     0.83100
N230        N  0.29670578  0.03405619  0.79029866    -0.75200
C231        C  0.29667830  0.04788654  0.78680816     0.85500
N232        N  0.29792450  0.05381770  0.74437275    -0.75200
C233        C  0.29944415  0.04610722  0.70512255     0.85600
N234        N  0.29945468  0.03224898  0.70819124    -0.76900
C235        C  0.22252289  0.90157266  0.50798786     0.83100
N236        N  0.23167435  0.90875208  0.54704677    -0.75200
C237        C  0.22570715  0.92246078  0.54881831     0.85500
N238        N  0.21093130  0.92894479  0.51179318    -0.75200
C239        C  0.29603579  0.92091277  0.96942819     0.85600
N240        N  0.29458697  0.90704984  0.96822681    -0.76900
C241        C  0.26289849  0.83194900  0.99824665     0.83100
N242        N  0.24468200  0.82626065  0.54146765    -0.75200
C243        C  0.24622001  0.81238507  0.54164571     0.85500
N244        N  0.25185140  0.80430531  0.99806933    -0.75200
C245        C  0.25532277  0.81129953  0.95634657     0.85600
N246        N  0.26084668  0.82503248  0.95743488    -0.76900
O247        O  0.24892534  0.79518712  0.81083657    -0.54900
C248        C  0.24616381  0.78780263  0.65073037     0.77700
O249        O  0.29102837  0.75611758  0.74809212    -0.56100
C250        C  0.24803150  0.78717368  0.84576148     0.77700
C251        C  0.17446425  0.76312218  0.74825012     0.80100
Cd252      Cd  0.24775479  0.77632172  0.74771726     1.37500
O253        O  0.24938677  0.79559017  0.68627728    -0.54900
O254        O  0.17790141  0.77593365  0.75261750    -0.53700
C255        C  0.32119311  0.76294537  0.74735024     0.80000
O256        O  0.20459961  0.75627939  0.74407734    -0.56100
O257        O  0.24368762  0.77522364  0.65990017    -0.54600
O258        O  0.24655579  0.77460852  0.83554735    -0.54600
O259        O  0.31774370  0.77580104  0.74617061    -0.53700
C260        C  0.00782559  0.67551682  0.99934694     0.83100
N261        N  0.00513036  0.68220649  0.95839859    -0.75200
C262        C  0.00187968  0.69603530  0.95689491     0.85500
N263        N  0.00097054  0.70337428  0.99839968    -0.75200
C264        C  0.99916439  0.69662173  0.53684581     0.85600
N265        N  0.99954314  0.68275316  0.53524953    -0.76900
O266        O  0.00122441  0.71222697  0.68346511    -0.54900
C267        C  0.49723652  0.71971210  0.84734892     0.77700
O268        O  0.04044833  0.75123036  0.74915176    -0.56100
C269        C  0.99794031  0.72036734  0.64913273     0.77700
C270        C  0.42505107  0.74445915  0.74978048     0.80100
Cd271      Cd  0.99849101  0.73080102  0.74799073     1.37500
O272        O  0.50136973  0.71192863  0.81182176    -0.54900
O273        O  0.42829142  0.73159929  0.75272382    -0.53700
C274        C  0.07097950  0.74455698  0.74695774     0.80000
O275        O  0.45529404  0.75124035  0.74738467    -0.56100
O276        O  0.49284624  0.73220826  0.83800254    -0.54600
O277        O  0.99496639  0.73284098  0.66027788    -0.54600
O278        O  0.06826459  0.73168073  0.74470509    -0.53700
O279        O  0.49810133  0.29471673  0.67290367    -0.54900
C280        C  0.00048450  0.28782911  0.83975455     0.77700
O281        O  0.45835465  0.25538753  0.73200487    -0.56100
C282        C  0.50022820  0.28688420  0.63722718     0.77700
C283        C  0.07474741  0.26396589  0.73633347     0.80100
Cd284      Cd  0.00089743  0.27697329  0.74103372     1.37500
O285        O  0.99779189  0.29584355  0.80502849    -0.54900
O286        O  0.07095827  0.27683027  0.73714237    -0.53700
C287        C  0.42823417  0.26231885  0.73287971     0.80000
O288        O  0.04479943  0.25701994  0.73838157    -0.56100
O289        O  0.00377394  0.27533333  0.82906079    -0.54600
O290        O  0.50354818  0.27432138  0.64629177    -0.54600
O291        O  0.43177224  0.27516484  0.73494246    -0.53700
C292        C  0.99223196  0.33226779  0.99555172     0.83100
N293        N  0.99709349  0.32672659  0.53430307    -0.75200
C294        C  0.99903264  0.31286542  0.53495472     0.85500
N295        N  0.99465741  0.30431048  0.99341074    -0.75200
C296        C  0.99484353  0.31163485  0.95215230     0.85600
N297        N  0.99365119  0.32552211  0.95424285    -0.76900
O298        O  0.24761318  0.21283665  0.79339367    -0.54900
C299        C  0.25331236  0.21317500  0.64705488     0.77700
O300        O  0.20878885  0.25146293  0.72451870    -0.56100
C301        C  0.24825817  0.22107702  0.82774090     0.77700
C302        C  0.32416671  0.24418269  0.72967895     0.80100
Cd303      Cd  0.25066131  0.23083164  0.73110186     1.37500
O304        O  0.25248069  0.20838859  0.68803452    -0.54900
O305        O  0.31993912  0.23191408  0.74206281    -0.53700
C306        C  0.17812713  0.24508542  0.72931343     0.80000
O307        O  0.29480995  0.25042845  0.71719572    -0.56100
O308        O  0.25273151  0.22606825  0.64433779    -0.54600
O309        O  0.24986533  0.23360892  0.81757820    -0.54600
O310        O  0.18061384  0.23227686  0.73355974    -0.53700
C311        C  0.24499514  0.17935191  0.98895153     0.83100
N312        N  0.25851990  0.18570194  0.52337927    -0.75200
C313        C  0.25671800  0.19955009  0.51884037     0.85500
N314        N  0.24623453  0.20686065  0.97608291    -0.75200
C315        C  0.24585560  0.19826352  0.93827554     0.85600
N316        N  0.24525297  0.18454877  0.94518507    -0.76900
C317        C  0.49862520  0.39976581  0.99441009     0.84300
N318        N  0.51056998  0.40707521  0.95684379    -0.75200
C319        C  0.50782963  0.42091360  0.95736740     0.85500
N320        N  0.49317853  0.42741810  0.99522589    -0.75200
C321        C  0.50067323  0.42092063  0.52508356     0.85600
N322        N  0.50105122  0.40704823  0.52320422    -0.76900
C323        C  0.92246115  0.52529365  0.75493054     0.83100
N324        N  0.92361907  0.53193353  0.71320988    -0.75200
C325        C  0.92903297  0.54568834  0.71232244     0.85500
N326        N  0.93381867  0.55265542  0.75267178    -0.75200
C327        C  0.93283743  0.54612909  0.79408276     0.85600
N328        N  0.92740279  0.53240933  0.79535447    -0.76900
C329        C  0.56109768  0.48134326  0.73683154     0.83100
N330        N  0.56158764  0.47435195  0.69557895    -0.75200
C331        C  0.55826475  0.46052024  0.69546176     0.85500
N332        N  0.55390255  0.45377335  0.73622449    -0.75200
C333        C  0.55327341  0.46066341  0.77727591     0.85600
N334        N  0.55667883  0.47448162  0.77771056    -0.76900
C335        C  0.01289451  0.60682386  0.99955884     0.83100
N336        N  0.98263446  0.60048763  0.54087487    -0.75200
C337        C  0.98302152  0.58658658  0.54194975     0.85500
N338        N  0.00902468  0.57914877  0.00105577    -0.75200
C339        C  0.99412053  0.58608909  0.96501101     0.85600
N340        N  0.99599457  0.59995171  0.96413841    -0.76900
C341        C  0.97637470  0.57853284  0.92835862    -0.15600
C342        C  0.51839170  0.56912035  0.88306298     0.08400
C343        C  0.52862608  0.55926894  0.84898604     0.10300
C344        C  0.94063058  0.55382233  0.83557515    -0.16500
C345        C  0.96417429  0.57907370  0.57821963    -0.15600
C346        C  0.95132036  0.57108005  0.60603301     0.08400
C347        C  0.58028661  0.56029124  0.62861995     0.10300
C348        C  0.93293905  0.55306113  0.66933537    -0.16500
C349        C  0.91887561  0.51061687  0.75632677    -0.10400
C350        C  0.91829888  0.49826883  0.75809043    -0.12000
C351        C  0.52037871  0.42886447  0.91830219    -0.15600
C352        C  0.52977163  0.43648233  0.88742145     0.08400
C353        C  0.94616482  0.44827504  0.87428998     0.10300
C354        C  0.54665881  0.45318997  0.81948430    -0.16500
C355        C  0.52209468  0.42826753  0.55904214    -0.15600
C356        C  0.94445689  0.43790281  0.60832976     0.08400
C357        C  0.54905563  0.44520750  0.62083830     0.10300
C358        C  0.55559137  0.45290335  0.65269895    -0.16500
C359        C  0.24735575  0.21656344  0.87731212    -0.13600
C360        C  0.24624697  0.20330010  0.88929872    -0.28700
H361        H  0.24788772  0.22436005  0.90443935     0.15500
H362        H  0.24581484  0.19561863  0.86175370     0.16000
C363        C  0.25550285  0.20870126  0.56080640    -0.13600
C364        C  0.25488301  0.20403089  0.60518777    -0.28700
H365        H  0.25480710  0.21964332  0.55488022     0.15500
H366        H  0.25541654  0.19309794  0.61131008     0.16000
C367        C  0.99189415  0.34701589  0.99704239    -0.15600
C368        C  0.99147002  0.36073886  0.49595547     0.08400
C369        C  0.99426283  0.37384550  0.00193430     0.10300
C370        C  0.99634539  0.38618121  0.00373803    -0.16500
C371        C  0.14205471  0.25202333  0.73068782    -0.10400
C372        C  0.11146200  0.25753166  0.73310918    -0.12000
C373        C  0.39155385  0.25593460  0.73140574    -0.10400
C374        C  0.36071014  0.25068452  0.73019197    -0.12000
C375        C  0.99981662  0.29240832  0.89039751    -0.13600
C376        C  0.99553829  0.30560781  0.90340713    -0.28700
H377        H  0.00290943  0.28471738  0.91723819     0.15500
H378        H  0.51025889  0.31142144  0.86693390     0.16000
C379        C  0.49344956  0.30493350  0.57587349    -0.13600
C380        C  0.49896610  0.29173645  0.58724436    -0.28700
H381        H  0.99806328  0.31386297  0.61178785     0.15500
H382        H  0.50248537  0.28423255  0.55946007     0.16000
C383        C  0.01094771  0.66079850  0.99974328    -0.15600
C384        C  0.99906388  0.64872445  0.49662845     0.08400
C385        C  0.51966677  0.63354459  0.49757663     0.10300
C386        C  0.01404671  0.62156958  0.99933488    -0.16500
C387        C  0.50512741  0.70180761  0.90897455    -0.13600
C388        C  0.49740880  0.71485071  0.89739930    -0.28700
H389        H  0.99535930  0.69454538  0.88058535     0.15500
H390        H  0.49103825  0.72218372  0.92498822     0.16000
C391        C  0.00076506  0.70271352  0.58531564    -0.13600
C392        C  0.99731311  0.71591388  0.59845032    -0.28700
H393        H  0.00423024  0.69533082  0.61314245     0.15500
H394        H  0.48498393  0.72149306  0.57586446     0.16000
C395        C  0.13788507  0.75665791  0.74782701    -0.10400
C396        C  0.10723865  0.75125337  0.74728976    -0.12000
C397        C  0.35779825  0.75642943  0.74807165    -0.10400
C398        C  0.38854007  0.75104141  0.74895416    -0.12000
C399        C  0.25309993  0.80511175  0.90811299    -0.13600
C400        C  0.24886561  0.79187164  0.89610861    -0.28700
H401        H  0.25562489  0.81235610  0.87966273     0.15500
H402        H  0.24663917  0.78426950  0.92340399     0.16000
C403        C  0.24887008  0.80601097  0.58936103    -0.13600
C404        C  0.24503232  0.79273425  0.60080774    -0.28700
H405        H  0.25297872  0.81316764  0.61794185     0.15500
H406        H  0.24049269  0.78528572  0.57329448     0.16000
C407        C  0.26827577  0.84652007  0.99862861    -0.15600
C408        C  0.27210836  0.85877154  0.00009754     0.08400
C409        C  0.27576235  0.87315774  0.00237310     0.10300
C410        C  0.22870913  0.88701235  0.50599674    -0.16500
C411        C  0.31408803  0.95565246  0.83584031    -0.15600
C412        C  0.31723825  0.94726588  0.86614437     0.08400
C413        C  0.31520269  0.93685073  0.89985918     0.10300
C414        C  0.30879053  0.92863099  0.93001064    -0.16500
C415        C  0.26636291  0.95625832  0.68096796    -0.15600
C416        C  0.25605218  0.94839870  0.65135220     0.08400
C417        C  0.24526526  0.93851294  0.61823424     0.10300
C418        C  0.23646085  0.93045672  0.58844155    -0.16500
C419        C  0.29694843  0.99920062  0.75691167    -0.10400
C420        C  0.29781041  0.01152616  0.75455202    -0.12000
C421        C  0.29368974  0.05649346  0.82725606    -0.15600
C422        C  0.28968277  0.06497250  0.85751362     0.08400
C423        C  0.28308154  0.07522518  0.89135439     0.10300
C424        C  0.27563502  0.08323057  0.92215663    -0.16500
C425        C  0.28390294  0.07930815  0.56558681    -0.15600
C426        C  0.29184865  0.07092482  0.59455612     0.08400
C427        C  0.29721717  0.06077323  0.62870683     0.10300
C428        C  0.29933304  0.05297775  0.66101376    -0.16500
C429        C  0.24466101  0.16475852  0.99546877    -0.15600
C430        C  0.26134196  0.15041018  0.49150434     0.08400
C431        C  0.26114397  0.13588232  0.49277451     0.10300
C432        C  0.24733101  0.12569262  0.00417234    -0.16500
C433        C  0.78015588  0.10916385  0.01317364     0.83100
N434        N  0.77067402  0.10150220  0.05108598    -0.75200
C435        C  0.77554968  0.08771472  0.04970227     0.85500
N436        N  0.78948208  0.08165326  0.01066095    -0.75200
C437        C  0.69784833  0.08851036  0.47035081     0.85600
N438        N  0.70033392  0.10237145  0.47081303    -0.76900
C439        C  0.69534248  0.98287280  0.26110579     0.83100
N440        N  0.69036256  0.97541763  0.22144844    -0.75200
C441        C  0.68689850  0.96162598  0.22390385     0.85500
N442        N  0.68883613  0.95531077  0.26566818    -0.75200
C443        C  0.69378996  0.96266017  0.30523759     0.85600
N444        N  0.69720060  0.97647067  0.30308965    -0.76900
C445        C  0.70483440  0.02449754  0.25561247     0.83100
N446        N  0.69464158  0.03196126  0.29400729    -0.75200
C447        C  0.69722944  0.04579846  0.29313026     0.85500
N448        N  0.71016276  0.05210277  0.25436970    -0.75200
C449        C  0.72039739  0.04478538  0.21614871     0.85600
N450        N  0.71779375  0.03092465  0.21653697    -0.76900
C451        C  0.73780578  0.90243773  0.00145666     0.83100
N452        N  0.71933138  0.90844529  0.03805544    -0.75200
C453        C  0.71890362  0.92226774  0.04224552     0.85500
N454        N  0.73711596  0.93002105  0.01037607    -0.75200
C455        C  0.72849124  0.92251597  0.48578347     0.85600
N456        N  0.72498185  0.90869939  0.48519972    -0.76900
C457        C  0.73664294  0.83260354  0.50803100     0.83100
N458        N  0.74512645  0.82739261  0.03894891    -0.75200
C459        C  0.74727339  0.81354570  0.04126870     0.85500
N460        N  0.74138677  0.80470328  0.50383658    -0.75200
C461        C  0.74056865  0.81228161  0.46313178     0.85600
N462        N  0.73838311  0.82613432  0.46624134    -0.76900
O463        O  0.74437515  0.79733665  0.31488786    -0.54900
C464        C  0.74675138  0.78982117  0.15269932     0.77700
O465        O  0.78869138  0.75854750  0.24999190    -0.56100
C466        C  0.74162796  0.78912110  0.34916318     0.77700
C467        C  0.67210676  0.76508368  0.24716010     0.80100
Cd468      Cd  0.74500460  0.77864136  0.25021961     1.37500
O469        O  0.74631492  0.79782413  0.18801626    -0.54900
O470        O  0.67497182  0.77797282  0.24806226    -0.53700
C471        C  0.81876428  0.76541395  0.25134922     0.80000
O472        O  0.70257181  0.75836476  0.24748068    -0.56100
O473        O  0.74642287  0.77724819  0.16240593    -0.54600
O474        O  0.74012026  0.77663887  0.33784317    -0.54600
O475        O  0.81511999  0.77827578  0.25237802    -0.53700
C476        C  0.51259023  0.67515773  0.49838633     0.83100
N477        N  0.50875416  0.68197243  0.45779485    -0.75200
C478        C  0.50507988  0.69580510  0.45689046     0.85500
N479        N  0.50490824  0.70300017  0.49868520    -0.75200
C480        C  0.50383116  0.69535721  0.04044704     0.85600
N481        N  0.50525854  0.68147544  0.03894116    -0.76900
O482        O  0.50133728  0.71198123  0.18646466    -0.54900
C483        C  0.99671357  0.72152408  0.34457533     0.77700
O484        O  0.53870597  0.75207762  0.24856470    -0.56100
C485        C  0.49879974  0.71977106  0.15112470     0.77700
C486        C  0.92267716  0.74679886  0.25001541     0.80100
Cd487      Cd  0.49768384  0.73127717  0.24879083     1.37500
O488        O  0.99409695  0.71378877  0.30882775    -0.54900
O489        O  0.92581447  0.73392129  0.25043849    -0.53700
C490        C  0.56965178  0.74568080  0.24669961     0.80000
O491        O  0.95303752  0.75349831  0.24848147    -0.56100
O492        O  0.99894108  0.73412516  0.33563509    -0.54600
O493        O  0.49557615  0.73233479  0.16079388    -0.54600
O494        O  0.56768070  0.73278267  0.24568477    -0.53700
O495        O  0.99334716  0.29536227  0.18079879    -0.54900
C496        C  0.49488269  0.28689737  0.33313064     0.77700
O497        O  0.95485866  0.25652864  0.24550581    -0.56100
C498        C  0.99912273  0.28740203  0.14601638     0.77700
C499        C  0.57203827  0.26262270  0.23786213     0.80100
Cd500      Cd  0.49885408  0.27587442  0.23519817     1.37500
O501        O  0.49983192  0.29481112  0.29839870    -0.54900
O502        O  0.56850530  0.27548729  0.23838934    -0.53700
C503        C  0.92452882  0.26329447  0.24375090     0.80000
O504        O  0.54198947  0.25573435  0.23632617    -0.56100
O505        O  0.49139107  0.27440371  0.32271396    -0.54600
O506        O  0.00453189  0.27502484  0.15634674    -0.54600
O507        O  0.92770874  0.27615177  0.24236592    -0.53700
C508        C  0.48783324  0.33181269  0.48605650     0.83100
N509        N  0.50601216  0.32422850  0.02641407    -0.75200
C510        C  0.50498538  0.31036504  0.02709602     0.85500
N511        N  0.49482071  0.30397291  0.48596383    -0.75200
C512        C  0.49395450  0.31102842  0.44423812     0.85600
N513        N  0.49068538  0.32486078  0.44529228    -0.76900
O514        O  0.74252880  0.21190861  0.30779080    -0.54900
C515        C  0.75144713  0.21323829  0.16182517     0.77700
O516        O  0.70615312  0.25080446  0.24122236    -0.56100
C517        C  0.74586261  0.21973269  0.34291012     0.77700
C518        C  0.82129575  0.24440774  0.24359032     0.80100
Cd519      Cd  0.74862713  0.23037159  0.24679487     1.37500
O520        O  0.75361940  0.20833186  0.20252260    -0.54900
O521        O  0.81860777  0.23168665  0.25004967    -0.53700
C522        C  0.67573910  0.24415410  0.24186961     0.80000
O523        O  0.79076647  0.25080618  0.23794851    -0.56100
O524        O  0.74820006  0.22609208  0.15968798    -0.54600
O525        O  0.75036830  0.23224422  0.33386521    -0.54600
O526        O  0.67868617  0.23132157  0.24441918    -0.53700
C527        C  0.73465778  0.17707361  0.50140431     0.83100
N528        N  0.75388759  0.18569049  0.03939535    -0.75200
C529        C  0.75114103  0.19947465  0.03386686     0.85500
N530        N  0.74375180  0.20443489  0.48992349    -0.75200
C531        C  0.73935920  0.19618221  0.45174904     0.85600
N532        N  0.73477423  0.18253464  0.45796771    -0.76900
C533        C  0.98883434  0.40230034  0.50169695     0.84300
N534        N  0.00595111  0.40943078  0.46684926    -0.75200
C535        C  0.00647407  0.42329957  0.46846672     0.85500
N536        N  0.98988544  0.43000837  0.50467443    -0.75200
C537        C  0.02098873  0.42112847  0.04009904     0.85600
N538        N  0.01809626  0.40727317  0.03974479    -0.76900
C539        C  0.43695367  0.52360684  0.25269957     0.83100
N540        N  0.43915236  0.53082887  0.21226696    -0.75200
C541        C  0.44632768  0.54445361  0.21365022     0.85500
N542        N  0.45149354  0.55078525  0.25512248    -0.75200
C543        C  0.44937715  0.54371305  0.29545902     0.85600
N544        N  0.44223288  0.53006325  0.29442858    -0.76900
C545        C  0.07342789  0.48293652  0.25268824     0.83100
N546        N  0.07407499  0.47577350  0.21173194    -0.75200
C547        C  0.07109937  0.46192178  0.21230545     0.85500
N548        N  0.06690820  0.45534653  0.25340437    -0.75200
C549        C  0.06611865  0.46239747  0.29411509     0.85600
N550        N  0.06912468  0.47622553  0.29388212    -0.76900
C551        C  0.52258535  0.60640497  0.49732648     0.83100
N552        N  0.48501979  0.59914447  0.03445050    -0.75200
C553        C  0.48127055  0.58532262  0.03324677     0.85500
N554        N  0.52563093  0.57871110  0.49780192    -0.75200
C555        C  0.50593016  0.58516092  0.46443906     0.85600
N556        N  0.50437246  0.59905270  0.46400469    -0.76900
C557        C  0.48765045  0.57699285  0.42960987    -0.15600
C558        C  0.04874528  0.57012018  0.40761850     0.08400
C559        C  0.05854445  0.56046373  0.37269414     0.10300
C560        C  0.45616244  0.55093240  0.33838399    -0.16500
C561        C  0.47004228  0.57775868  0.07386780    -0.15600
C562        C  0.46215785  0.56997249  0.10494375     0.08400
C563        C  0.05791679  0.56112951  0.14095678     0.10300
C564        C  0.44983773  0.55235050  0.17175246    -0.16500
C565        C  0.43046146  0.50904236  0.25106428    -0.10400
C566        C  0.42635388  0.49676645  0.24958231    -0.12000
C567        C  0.02410608  0.43106542  0.43201542    -0.15600
C568        C  0.03708025  0.43856229  0.40278943     0.08400
C569        C  0.41603099  0.44655559  0.36627508     0.10300
C570        C  0.05877121  0.45509541  0.33648863    -0.16500
C571        C  0.03975539  0.42830934  0.07688721    -0.15600
C572        C  0.45546227  0.43529972  0.10292968     0.08400
C573        C  0.06301448  0.44596602  0.13893829     0.10300
C574        C  0.06873348  0.45404112  0.17000640    -0.16500
C575        C  0.74485991  0.21479190  0.39208520    -0.13600
C576        C  0.73963399  0.20156101  0.40310458    -0.28700
H577        H  0.74878803  0.22224900  0.41975974     0.15500
H578        H  0.73571464  0.19420268  0.37509352     0.16000
C579        C  0.75015911  0.20880449  0.07539725    -0.13600
C580        C  0.75258581  0.20419959  0.11975269    -0.28700
H581        H  0.74742408  0.21967911  0.06931229     0.15500
H582        H  0.75540377  0.19332742  0.12581327     0.16000
C583        C  0.48483620  0.34650818  0.48607748    -0.15600
C584        C  0.50639898  0.35827249  0.98856202     0.08400
C585        C  0.48142166  0.37332130  0.48725613     0.10300
C586        C  0.48056337  0.38566635  0.48868587    -0.16500
C587        C  0.63940663  0.25080964  0.24004522    -0.10400
C588        C  0.60865234  0.25616157  0.23895592    -0.12000
C589        C  0.88804117  0.25671064  0.24329593    -0.10400
C590        C  0.85745411  0.25122799  0.24306753    -0.12000
C591        C  0.49302713  0.29161463  0.38348491    -0.13600
C592        C  0.49763589  0.30479094  0.39611403    -0.28700
H593        H  0.48719251  0.28410261  0.41032937     0.15500
H594        H  0.99592758  0.31377532  0.37471517     0.16000
C595        C  0.99133188  0.30488550  0.08344244    -0.13600
C596        C  0.99978572  0.29198000  0.09571059    -0.28700
H597        H  0.50040007  0.31158118  0.10359629     0.15500
H598        H  0.00765226  0.28463887  0.06873526     0.16000
C599        C  0.51586185  0.66042505  0.49826953    -0.15600
C600        C  0.50571592  0.64743662  0.99713132     0.08400
C601        C  0.01400905  0.63393816  0.99940325     0.10300
C602        C  0.52095014  0.62117058  0.49726243    -0.16500
C603        C  0.99474535  0.70315056  0.40558661    -0.13600
C604        C  0.99738428  0.71649833  0.39443894    -0.28700
H605        H  0.50186864  0.69458523  0.38015170     0.15500
H606        H  0.00048085  0.72397200  0.42227203     0.16000
C607        C  0.50320784  0.70158848  0.08884055    -0.13600
C608        C  0.49949558  0.71487673  0.10088570    -0.28700
H609        H  0.50561811  0.69434154  0.11726070     0.15500
H610        H  0.99496688  0.72375690  0.07204689     0.16000
C611        C  0.63581732  0.75837800  0.24617310    -0.10400
C612        C  0.60550607  0.75270227  0.24605977    -0.12000
C613        C  0.85546824  0.75891534  0.25145903    -0.10400
C614        C  0.88620513  0.75347680  0.25103952    -0.12000
C615        C  0.74268287  0.80658563  0.41400187    -0.13600
C616        C  0.74023668  0.79343628  0.40002078    -0.28700
H617        H  0.74550860  0.81418530  0.38662283     0.15500
H618        H  0.73697133  0.78555583  0.42631583     0.16000
C619        C  0.74741028  0.80771420  0.08996299    -0.13600
C620        C  0.74747758  0.79444612  0.10238748    -0.28700
H621        H  0.74695037  0.81520640  0.11812376     0.15500
H622        H  0.74772506  0.78668635  0.07515198     0.16000
C623        C  0.73500891  0.84732051  0.51056814    -0.15600
C624        C  0.73456624  0.85965640  0.51347133     0.08400
C625        C  0.73518694  0.87412163  0.51688389     0.10300
C626        C  0.73871203  0.88776294  0.99743015    -0.16500
C627        C  0.69699192  0.95551590  0.34860195    -0.15600
C628        C  0.70072824  0.94807971  0.38162038     0.08400
C629        C  0.70705847  0.93861838  0.41769600     0.10300
C630        C  0.71503640  0.93072248  0.44816083    -0.16500
C631        C  0.68397936  0.95344618  0.18248506    -0.15600
C632        C  0.68503086  0.94558974  0.15000332     0.08400
C633        C  0.69124275  0.93619404  0.11325887     0.10300
C634        C  0.70134388  0.92893143  0.08144210    -0.16500
C635        C  0.69909703  0.99751298  0.25851780    -0.10400
C636        C  0.70196616  0.00980741  0.25661411    -0.12000
C637        C  0.68802280  0.05403637  0.33319482    -0.15600
C638        C  0.68409267  0.06249363  0.36359572     0.08400
C639        C  0.68407144  0.07290643  0.39785023     0.10300
C640        C  0.68810929  0.08106973  0.42901234    -0.16500
C641        C  0.76423870  0.07917219  0.08789615    -0.15600
C642        C  0.75511739  0.07060717  0.11588707     0.08400
C643        C  0.74422331  0.06019257  0.14713526     0.10300
C644        C  0.73400628  0.05208465  0.17612409    -0.16500
C645        C  0.72953683  0.16253572  0.50695672    -0.15600
C646        C  0.76323642  0.15038347  0.01079691     0.08400
C647        C  0.76900881  0.13602108  0.01308564     0.10300
C648        C  0.71601515  0.12363743  0.51035256    -0.16500
C649        C  0.71225472  0.10895149  0.50995754     0.83100
N650        N  0.72219502  0.10160543  0.54810487    -0.75200
C651        C  0.71972102  0.08775627  0.54721741     0.85500
N652        N  0.70773738  0.08130398  0.50837744    -0.75200
C653        C  0.79893439  0.08917505  0.97292634     0.85600
N654        N  0.79406337  0.10295339  0.97390785    -0.76900
C655        C  0.80819905  0.98544281  0.75867508     0.83100
N656        N  0.81022213  0.97757163  0.71933511    -0.75200
C657        C  0.81064809  0.96372896  0.72293456     0.85500
N658        N  0.80849184  0.95784053  0.76540469    -0.75200
C659        C  0.80637721  0.96558599  0.80453928     0.85600
N660        N  0.80595322  0.97942430  0.80134816    -0.76900
C661        C  0.80195797  0.02713977  0.75269862     0.83100
N662        N  0.81184663  0.03461461  0.79083469    -0.75200
C663        C  0.80833771  0.04843972  0.79034861     0.85500
N664        N  0.79460766  0.05471252  0.75225055    -0.75200
C665        C  0.78460839  0.04735070  0.71433790     0.85600
N666        N  0.78815521  0.03352400  0.71442634    -0.76900
C667        C  0.73948534  0.90115245  0.52046937     0.83100
N668        N  0.75775398  0.90746962  0.55604878    -0.75200
C669        C  0.76129240  0.92129619  0.55620571     0.85500
N670        N  0.74667018  0.92872435  0.52115227    -0.75200
C671        C  0.75563873  0.92411832  0.97404236     0.85600
N672        N  0.75601964  0.91029251  0.96936100    -0.76900
C673        C  0.74526886  0.83393194  0.99752199     0.83100
N674        N  0.73730922  0.82521777  0.54763356    -0.75200
C675        C  0.73976224  0.81137204  0.54661692     0.85500
N676        N  0.74953114  0.80604783  0.00019289    -0.75200
C677        C  0.74985807  0.81276798  0.95779786     0.85600
N678        N  0.74786646  0.82662741  0.95746265    -0.76900
O679        O  0.75325395  0.79522911  0.81378685    -0.54900
C680        C  0.74784097  0.78676023  0.65494768     0.77700
O681        O  0.78976931  0.75529679  0.75787534    -0.56100
C682        C  0.74738729  0.78773780  0.84937153     0.77700
C683        C  0.67438685  0.76311080  0.75107972     0.80100
Cd684      Cd  0.74806693  0.77586065  0.75258299     1.37500
O685        O  0.74471219  0.79465743  0.69033758    -0.54900
O686        O  0.67832978  0.77594264  0.75270278    -0.53700
C687        C  0.82036887  0.76179158  0.75408080     0.80000
O688        O  0.70422937  0.75602818  0.75022964    -0.56100
O689        O  0.75167857  0.77424525  0.66446988    -0.54600
O690        O  0.74180027  0.77526781  0.84031124    -0.54600
O691        O  0.81781086  0.77461458  0.74981265    -0.53700
C692        C  0.50638445  0.67457503  0.99792568     0.83100
N693        N  0.50624183  0.68158044  0.95740608    -0.75200
C694        C  0.50467807  0.69546158  0.95689782     0.85500
N695        N  0.50338620  0.70252515  0.99892154    -0.75200
C696        C  0.50880161  0.69602031  0.54029063     0.85600
N697        N  0.51282265  0.68220236  0.53911433    -0.76900
O698        O  0.50542472  0.71210567  0.68681167    -0.54900
C699        C  0.00059937  0.71976129  0.84552562     0.77700
O700        O  0.53996567  0.75160709  0.75242811    -0.56100
C701        C  0.49693260  0.71958636  0.65222962     0.77700
C702        C  0.92429182  0.74339359  0.75193626     0.80100
Cd703      Cd  0.49809203  0.73104450  0.74993471     1.37500
O704        O  0.99761467  0.71174650  0.81048363    -0.54900
O705        O  0.92860340  0.73055624  0.75210504    -0.53700
C706        C  0.57050061  0.74498997  0.74943200     0.80000
O707        O  0.95393674  0.75050989  0.75007461    -0.56100
O708        O  0.00276221  0.73229044  0.83551038    -0.54600
O709        O  0.48836649  0.73176100  0.66274954    -0.54600
O710        O  0.56781074  0.73215499  0.74632153    -0.53700
O711        O  0.99959886  0.29624415  0.67978434    -0.54900
C712        C  0.50257546  0.28625373  0.83252421     0.77700
O713        O  0.95867812  0.25649951  0.74153330    -0.56100
C714        C  0.00157556  0.28839761  0.64412525     0.77700
C715        C  0.57540027  0.26229396  0.73357043     0.80100
Cd716      Cd  0.50170175  0.27547628  0.73418123     1.37500
O717        O  0.50451694  0.29427010  0.79766073    -0.54900
O718        O  0.57169396  0.27514694  0.73229673    -0.53700
C719        C  0.92810097  0.26311814  0.74009597     0.80000
O720        O  0.54535931  0.25537983  0.73433369    -0.56100
O721        O  0.49988959  0.27372819  0.82214389    -0.54600
O722        O  0.00326234  0.27579682  0.65319636    -0.54600
O723        O  0.93081233  0.27599549  0.73899800    -0.53700
C724        C  0.50768009  0.33118510  0.98592118     0.83100
N725        N  0.48864727  0.32494104  0.52680458    -0.75200
C726        C  0.49220553  0.31111478  0.52775961     0.85500
N727        N  0.50538404  0.30323434  0.98519141    -0.75200
C728        C  0.50702833  0.31037149  0.94360790     0.85600
N729        N  0.50818973  0.32425780  0.94496901    -0.76900
O730        O  0.75074362  0.21167110  0.80723421    -0.54900
C731        C  0.75170548  0.21253102  0.66146759     0.77700
O732        O  0.70979907  0.25029940  0.73419314    -0.56100
C733        C  0.75023858  0.21970078  0.84214074     0.77700
C734        C  0.82520555  0.24395092  0.74166633     0.80100
Cd735      Cd  0.75219423  0.23001686  0.74560622     1.37500
O736        O  0.75312107  0.20767386  0.70227568    -0.54900
O737        O  0.82232853  0.23135239  0.75033414    -0.53700
C738        C  0.67928469  0.24389050  0.73987564     0.80000
O739        O  0.79478577  0.25025567  0.73443856    -0.56100
O740        O  0.75136044  0.22542135  0.65897199    -0.54600
O741        O  0.75049914  0.23230799  0.83271906    -0.54600
O742        O  0.68213697  0.23129256  0.74849256    -0.53700
C743        C  0.75490716  0.17722033  0.00163748     0.83100
N744        N  0.73916356  0.18532034  0.53924876    -0.75200
C745        C  0.74373708  0.19904496  0.53386419     0.85500
N746        N  0.74957979  0.20472310  0.98976591    -0.75200
C747        C  0.75062581  0.19625998  0.95162943     0.85600
N748        N  0.75326905  0.18254025  0.95804160    -0.76900
C749        C  0.99918598  0.40089895  0.00478554     0.84300
N750        N  0.98317241  0.40843099  0.97048733    -0.75200
C751        C  0.98606302  0.42227262  0.97122990     0.85500
N752        N  0.00493174  0.42852699  0.00594885    -0.75200
C753        C  0.97274185  0.42298344  0.53941710     0.85600
N754        N  0.97225169  0.40909684  0.53811831    -0.76900
C755        C  0.56383466  0.52313670  0.73883947     0.83100
N756        N  0.57377840  0.53025723  0.69992037    -0.75200
C757        C  0.57271207  0.54413617  0.70070127     0.85500
N758        N  0.56122055  0.55081197  0.73977773    -0.75200
C759        C  0.55113824  0.54381854  0.77843955     0.85600
N760        N  0.55231498  0.52993861  0.77812193    -0.76900
C761        C  0.92053400  0.48355147  0.75928115     0.83100
N762        N  0.92042424  0.47629688  0.71860624    -0.75200
C763        C  0.92480983  0.46251223  0.71928192     0.85500
N764        N  0.92983153  0.45604721  0.76032572    -0.75200
C765        C  0.93007690  0.46317272  0.80091940     0.85600
N766        N  0.92569744  0.47698180  0.80053848    -0.76900
C767        C  0.49665815  0.60591975  0.99547501     0.83100
N768        N  0.54226633  0.59980389  0.53090160    -0.75200
C769        C  0.54386865  0.58592842  0.53084240     0.85500
N770        N  0.48926553  0.57834272  0.99347127    -0.75200
C771        C  0.50085383  0.58499346  0.95468419     0.85600
N772        N  0.50466955  0.59880696  0.95555435    -0.76900
C773        C  0.51029131  0.57709997  0.91381061    -0.15600
C774        C  0.96313078  0.57094723  0.89968493     0.08400
C775        C  0.94983324  0.56151214  0.86635559     0.10300
C776        C  0.53838123  0.55139245  0.81865192    -0.16500
C777        C  0.56285865  0.57854617  0.56666029    -0.15600
C778        C  0.57387903  0.57052821  0.59518114     0.08400
C779        C  0.93975754  0.56104409  0.63844605     0.10300
C780        C  0.57994543  0.55201759  0.65957885    -0.16500
C781        C  0.56411318  0.50840356  0.73790744    -0.10400
C782        C  0.56335179  0.49605076  0.73718987    -0.12000
C783        C  0.96961282  0.43053413  0.93556935    -0.15600
C784        C  0.95788534  0.43856765  0.90745468     0.08400
C785        C  0.53951876  0.44573480  0.85170410     0.10300
C786        C  0.93774722  0.45592080  0.84321343    -0.16500
C787        C  0.95604881  0.43046091  0.57766837    -0.15600
C788        C  0.53660026  0.43577283  0.58698682     0.08400
C789        C  0.93389479  0.44713672  0.64424643     0.10300
C790        C  0.92783388  0.45471795  0.67681395    -0.16500
C791        C  0.74963301  0.21486923  0.89149248    -0.13600
C792        C  0.74974511  0.20151722  0.90281128    -0.28700
H793        H  0.74962913  0.22252499  0.91906744     0.15500
H794        H  0.74995741  0.19396366  0.87487457     0.16000
C795        C  0.74784355  0.20819177  0.57538332    -0.13600
C796        C  0.74985722  0.20347668  0.61957933    -0.28700
H797        H  0.74872031  0.21914673  0.56939050     0.15500
H798        H  0.74930124  0.19252386  0.62564621     0.16000
C799        C  0.50758798  0.34592631  0.98663841    -0.15600
C800        C  0.48295942  0.35884589  0.48633576     0.08400
C801        C  0.50400777  0.37273050  0.99144055     0.10300
C802        C  0.50153202  0.38505320  0.99350909    -0.16500
C803        C  0.64294842  0.25054702  0.73675038    -0.10400
C804        C  0.61215914  0.25587746  0.73472864    -0.12000
C805        C  0.89185312  0.25634936  0.73995812    -0.10400
C806        C  0.86139989  0.25075881  0.74037511    -0.12000
C807        C  0.50320377  0.29091408  0.88296563    -0.13600
C808        C  0.50726678  0.30414796  0.89525994    -0.28700
H809        H  0.50005854  0.28330522  0.91015080     0.15500
H810        H  0.99277490  0.31299050  0.87545439     0.16000
C811        C  0.99966109  0.30660968  0.58293291    -0.13600
C812        C  0.00178686  0.29328151  0.59416233    -0.28700
H813        H  0.48997660  0.31213977  0.60464239     0.15500
H814        H  0.00350300  0.28571564  0.56633736     0.16000
C815        C  0.50666894  0.65980699  0.99741554    -0.15600
C816        C  0.51789645  0.64806317  0.49801892     0.08400
C817        C  0.99957677  0.63425227  0.50042824     0.10300
C818        C  0.50057382  0.62061184  0.99643776    -0.16500
C819        C  0.99881576  0.70197679  0.90854422    -0.13600
C820        C  0.00179979  0.71517839  0.89585100    -0.28700
H821        H  0.51109896  0.69476549  0.88032445     0.15500
H822        H  0.00579807  0.72287588  0.92276302     0.16000
C823        C  0.51010083  0.70243382  0.58832855    -0.13600
C824        C  0.49665316  0.71475116  0.60194838    -0.28700
H825        H  0.52111229  0.69590156  0.61552125     0.15500
H826        H  0.99353385  0.72363528  0.57185606     0.16000
C827        C  0.63756625  0.75689104  0.75027771    -0.10400
C828        C  0.60673416  0.75165837  0.74974857    -0.12000
C829        C  0.85653419  0.75496949  0.75423270    -0.10400
C830        C  0.88731962  0.74961090  0.75354306    -0.12000
C831        C  0.75322182  0.80607008  0.91041827    -0.13600
C832        C  0.74654779  0.79292293  0.89915582    -0.28700
H833        H  0.75959062  0.81295904  0.88170607     0.15500
H834        H  0.73937226  0.78579146  0.92680704     0.16000
C835        C  0.74027972  0.80473852  0.59400190    -0.13600
C836        C  0.74707581  0.79158996  0.60490564    -0.28700
H837        H  0.73552372  0.81172253  0.62317147     0.15500
H838        H  0.75210669  0.78421856  0.57701763     0.16000
C839        C  0.74292547  0.84862626  0.99607826    -0.15600
C840        C  0.74121300  0.86095888  0.99536984     0.08400
C841        C  0.73966814  0.87542684  0.99571638     0.10300
C842        C  0.73667676  0.88645393  0.51914272    -0.16500
C843        C  0.80166413  0.95880547  0.84838171    -0.15600
C844        C  0.79545165  0.95115533  0.88030199     0.08400
C845        C  0.78529317  0.94114565  0.91327478     0.10300
C846        C  0.77358144  0.93275642  0.94032889    -0.16500
C847        C  0.80930051  0.95505129  0.68250080    -0.15600
C848        C  0.80400204  0.94647637  0.65297572     0.08400
C849        C  0.79310228  0.93623923  0.62105529     0.10300
C850        C  0.78016226  0.92839583  0.59298972    -0.16500
C851        C  0.80681835  0.00012457  0.75521498    -0.10400
C852        C  0.80493924  0.01244954  0.75349849    -0.12000
C853        C  0.81637821  0.05659628  0.83076181    -0.15600
C854        C  0.81880386  0.06467369  0.86250197     0.08400
C855        C  0.81669885  0.07447364  0.89880530     0.10300
C856        C  0.81075970  0.08212923  0.93119502    -0.16500
C857        C  0.73210072  0.07963682  0.58558546    -0.15600
C858        C  0.74312211  0.07163724  0.61416499     0.08400
C859        C  0.75683449  0.06199042  0.64617809     0.10300
C860        C  0.76926959  0.05444488  0.67527993    -0.16500
C861        C  0.75894154  0.16262554  0.00751585    -0.15600
C862        C  0.72509028  0.15029943  0.50935142     0.08400
C863        C  0.71996638  0.13591802  0.51035829     0.10300
C864        C  0.77415838  0.12378180  0.01383058    -0.16500
loop_ 
_geom_bond_atom_site_label_1 
_geom_bond_atom_site_label_2 
_geom_bond_distance 
_geom_bond_site_symmetry_2 
_ccdc_geom_bond_type 
C1            N2   1.363       .  A
C1          N222   1.361   1_554  A
C1          C432   1.442       .  S
N2            C3   1.361       .  A
C3            N4   1.350       .  A
C3          C209   1.432       .  S
N4          C221   1.349   1_554  A
C5            N6   1.359       .  A
C5          N220   1.350       .  A
C5          C208   1.431       .  S
N6          C217   1.362       .  A
C7            N8   1.360       .  A
C7           N12   1.362       .  A
C7          C203   1.441       .  S
N8            C9   1.358       .  A
C9           N10   1.351       .  A
C9          C199   1.432       .  S
N10          C11   1.351       .  A
C11          N12   1.360       .  A
C11         C195   1.433       .  S
C13          N14   1.362       .  A
C13          N18   1.363       .  A
C13         C204   1.441       .  S
N14          C15   1.358       .  A
C15          N16   1.349       .  A
C15         C205   1.430       .  S
N16          C17   1.349       .  A
C17          N18   1.360       .  A
C17         C212   1.432       .  S
C19          N20   1.361       .  A
C19         N240   1.361   1_554  A
C19         C194   1.440       .  S
N20          C21   1.359       .  A
C21          N22   1.351       .  A
C21         C202   1.432       .  S
N22         C239   1.351   1_554  A
C23          N24   1.360       .  A
C23         N238   1.351       .  A
C23         C198   1.433       .  S
N24         C235   1.362       .  A
C25          N30   1.351       .  A
C25         N242   1.351       .  A
C25         C191   1.443       .  S
N26          C27   1.358       .  A
N26         C241   1.349   1_554  A
C27         N244   1.385   1_554  A
C27         C187   1.507       .  S
N28          C29   1.385       .  A
N28         C243   1.385       .  A
C29          N30   1.360       .  A
C29         C183   1.510       .  S
O31          C34   1.276       .  A
O31         Cd36   2.593       .  S
C32         C188   1.511       .  S
C32          O41   1.264       .  A
C32          O37   1.276       .  A
O33          C39   1.268       .  A
O33         Cd36   2.505       .  S
C34         C184   1.513       .  S
C34          O42   1.264       .  A
C35         C179   1.450       .  S
C35          O40   1.267       .  A
C35          O38   1.265       .  A
Cd36         O43   2.496       .  S
Cd36         O42   2.521       .  S
Cd36         O41   2.518       .  S
Cd36         O37   2.582       .  S
Cd36         O40   2.500       .  S
Cd36         O38   2.494       .  S
C39         C181   1.453       .  S
C39          O43   1.267       .  A
C44          N45   1.353       .  A
C44         N265   1.350       .  A
C44         C167   1.446       .  S
N45          C46   1.362       .  A
C46          N47   1.385       .  A
C46         C603   1.511       .  S
N47         C264   1.385       .  A
C48          N49   1.361       .  A
C48         N263   1.385   1_554  A
C48         C175   1.512       .  S
N49         C260   1.352   1_554  A
O50          C53   1.274       .  A
O50         Cd55   2.593       .  S
C51         C172   1.516       .  S
C51          O60   1.264       .  A
C51          O56   1.275       .  A
O52          C58   1.267       .  A
O52         Cd55   2.509   1_455  S
C53         C176   1.515       .  S
C53          O61   1.264       .  A
C54         C182   1.453       .  S
C54          O59   1.267       .  A
C54          O57   1.266       .  A
Cd55         O62   2.492   1_655  S
Cd55         O61   2.534       .  S
Cd55        O492   2.528       .  S
Cd55        O488   2.589       .  S
Cd55        O491   2.510       .  S
Cd55        O489   2.500       .  S
O56        Cd487   2.600       .  S
O57        Cd487   2.504       .  S
C58         C180   1.451       .  S
C58          O62   1.265       .  A
O59        Cd487   2.504       .  S
O60        Cd487   2.533       .  S
O63          C66   1.276       .  A
O63        Cd500   2.573       .  S
C64         C159   1.513   1_655  S
C64          O73   1.264   1_655  A
C64          O69   1.275       .  A
O65          C71   1.268       .  A
O65        Cd500   2.493       .  S
C66         C164   1.511       .  S
C66          O74   1.264       .  A
C67         C156   1.448       .  S
C67          O72   1.269       .  A
C67          O70   1.266       .  A
Cd68         O73   2.525   1_655  S
Cd68         O69   2.586       .  S
Cd68         O72   2.492   1_655  S
Cd68         O70   2.481   1_655  S
Cd68        O495   2.574       .  S
Cd68        O497   2.511       .  S
Cd68        O507   2.498       .  S
Cd68        O506   2.520   1_655  S
C71         C157   1.447       .  S
C71          O75   1.266       .  A
O74        Cd500   2.516       .  S
O75        Cd500   2.482       .  S
C76          N81   1.352       .  A
C76         N293   1.350       .  A
C76         C151   1.444       .  S
N77          C78   1.358       .  A
N77         C292   1.349   1_554  A
C78         N295   1.385   1_554  A
C78         C595   1.507       .  S
N79          C80   1.384       .  A
N79         C294   1.384       .  A
C80          N81   1.361       .  A
C80         C160   1.510       .  S
O82          C85   1.268       .  A
O82         Cd87   2.519       .  S
C83         C148   1.487       .  S
C83          O92   1.265       .  A
C83          O88   1.266       .  A
O84          C90   1.266       .  A
O84         Cd87   2.511       .  S
C85         C143   1.491       .  S
C85          O93   1.265       .  A
C86         C158   1.447       .  S
C86          O91   1.266       .  A
C86          O89   1.263       .  A
Cd87         O94   2.488       .  S
Cd87         O93   2.499       .  S
Cd87         O92   2.525       .  S
Cd87         O88   2.493       .  S
Cd87         O91   2.508       .  S
Cd87         O89   2.484       .  S
C90         C155   1.448       .  S
C90          O94   1.263       .  A
C95         N100   1.358       .  A
C95         N312   1.361       .  A
C95         C213   1.448       .  S
N96          C97   1.362       .  A
N96         C311   1.357   1_554  A
C97         N314   1.368   1_554  A
C97         C147   1.493       .  S
N98          C99   1.366       .  A
N98         C313   1.367       .  A
C99         N100   1.359       .  A
C99         C144   1.492       .  S
C101        N102   1.361       .  A
C101        N322   1.361       .  A
C101        C586   1.442       .  S
N102        C103   1.359       .  A
C103        N104   1.353       .  A
C103        C135   1.434       .  S
N104        C321   1.353       .  A
C105        N106   1.361       .  A
C105        N320   1.353   1_554  A
C105        C139   1.439       .  S
N106        C317   1.363   1_554  A
C107        N108   1.361       .  A
C107        N112   1.362       .  A
C107        C133   1.444       .  S
N108        C109   1.359       .  A
C109        N110   1.352       .  A
C109        C132   1.436       .  S
N110        C111   1.353       .  A
C111        N112   1.360       .  A
C111        C128   1.435       .  S
C113        N114   1.363       .  A
C113        N118   1.361       .  A
C113        C566   1.446       .  S
N114        C115   1.362       .  A
C115        N116   1.353       .  A
C115        C142   1.439       .  S
N116        C117   1.353       .  A
C117        N118   1.358       .  A
C117        C138   1.434       .  S
C119        N124   1.361       .  A
C119        N336   1.364   1_455  A
C119        C170   1.446       .  S
N120        C121   1.360       .  A
N120        C335   1.362   1_554  A
C121        N338   1.353       .  A
C121        C129   1.436       .  S
N122        C123   1.351       .  A
N122        C337   1.352   1_455  A
C123        N124   1.359       .  A
C123        C125   1.435       .  S
C125        C558   1.206       .  T
C126        C557   1.208       .  T
C126        C127   1.415       .  S
C127        C560   1.208       .  T
C128        C559   1.206       .  T
C129        C130   1.206       .  T
C130        C563   1.413       .  S
C131        C564   1.206       .  T
C131        C562   1.413       .  S
C132        C563   1.206       .  T
C133        C134   1.211       .  T
C134        C545   1.444       .  S
C135        C136   1.205       .  T
C136        C569   1.411       .  S
C137        C570   1.205       .  T
C137        C568   1.411       .  S
C138        C569   1.205       .  T
C139        C572   1.208       .  T
C140        C571   1.206       .  T
C140        C573   1.413       .  S
C141        C142   1.208       .  T
C141        C572   1.416       .  S
C143        C144   1.348       .  D
C143        H145   1.086       .  S
C144        H146   1.087       .  S
C147        C148   1.352       .  D
C147        H149   1.089       .  S
C148        H150   1.089       .  S
C151        C368   1.211       .  T
C152        C367   1.211       .  T
C152        C369   1.421   1_556  S
C153        C154   1.210       .  T
C153        C368   1.420       .  S
C154        C533   1.443       .  S
C155        C156   1.213       .  T
C157        C158   1.213       .  T
C159        C160   1.350   1_455  D
C159        H161   1.086       .  S
C160        H594   1.087       .  S
H162        C592   1.087       .  S
C163        C510   1.507       .  S
C163        C164   1.347       .  D
C163        H597   1.087       .  S
C164        H166   1.086       .  S
H165        C595   1.087       .  S
C167        C384   1.212       .  T
C168        C383   1.211       .  T
C168        C601   1.421       .  S
C169        C818   1.212       .  T
C169        C600   1.422       .  S
C170        C817   1.212   1_455  T
C171        C478   1.513       .  S
C171        C172   1.351       .  D
C171        H605   1.087       .  S
C172        H174   1.086       .  S
H173        C603   1.087       .  S
C175        C176   1.351   1_455  D
C175        H177   1.087       .  S
C176        H610   1.086       .  S
H178        C608   1.086       .  S
C179        C180   1.215       .  T
C181        C182   1.216       .  T
C183        C184   1.349       .  D
C183        H185   1.089       .  S
C184        H186   1.088       .  S
C187        C188   1.347       .  D
C187        H189   1.087       .  S
C188        H190   1.086       .  S
C191        C192   1.210       .  T
C192        C193   1.419       .  S
C193        C410   1.210       .  T
C194        C409   1.208       .  T
C195        C196   1.204       .  T
C196        C197   1.410       .  S
C197        C198   1.204       .  T
C199        C200   1.204       .  T
C200        C201   1.409       .  S
C201        C202   1.204       .  T
C203        C204   1.209   1_565  T
C205        C206   1.203       .  T
C206        C207   1.408       .  S
C207        C208   1.203       .  T
C209        C210   1.204       .  T
C210        C211   1.410       .  S
C211        C212   1.204       .  T
C213        C430   1.213       .  T
C214        C429   1.210       .  T
C214        C215   1.418   1_556  S
C215        C432   1.210       .  T
C216        C217   1.447       .  S
C216        C431   1.212       .  T
C217        N218   1.364       .  A
N218        C219   1.361       .  A
C219        N220   1.350       .  A
C219        C425   1.435       .  S
C221        N222   1.358       .  A
C221        C424   1.430       .  S
C223        N224   1.361       .  A
C223        N228   1.363       .  A
C223        C419   1.442       .  S
N224        C225   1.358       .  A
C225        N226   1.350       .  A
C225        C415   1.431       .  S
N226        C227   1.351       .  A
C227        N228   1.361       .  A
C227        C411   1.433       .  S
C229        N230   1.361       .  A
C229        N234   1.363       .  A
C229        C420   1.442       .  S
N230        C231   1.358       .  A
C231        N232   1.350       .  A
C231        C421   1.431       .  S
N232        C233   1.351       .  A
C233        N234   1.360       .  A
C233        C428   1.435       .  S
C235        N236   1.361       .  A
C235        C410   1.443       .  S
N236        C237   1.359       .  A
C237        N238   1.351       .  A
C237        C418   1.432       .  S
C239        N240   1.359       .  A
C239        C414   1.432       .  S
C241        N246   1.350       .  A
C241        C407   1.440       .  S
N242        C243   1.360       .  A
C243        C403   1.510       .  S
N244        C245   1.385       .  A
C245        N246   1.360       .  A
C245        C399   1.508       .  S
O247        C250   1.275       .  A
O247       Cd252   2.578       .  S
C248        C404   1.513       .  S
C248        O257   1.264       .  A
C248        O253   1.275       .  A
O249        C255   1.267       .  A
O249       Cd252   2.505       .  S
C250        C400   1.512       .  S
C250        O258   1.264       .  A
C251        C395   1.450       .  S
C251        O256   1.268       .  A
C251        O254   1.266       .  A
Cd252       O259   2.493       .  S
Cd252       O258   2.522       .  S
Cd252       O257   2.523       .  S
Cd252       O253   2.588       .  S
Cd252       O256   2.499       .  S
Cd252       O254   2.491       .  S
C255        C397   1.450       .  S
C255        O259   1.265       .  A
C260        N261   1.351       .  A
C260        C383   1.445       .  S
N261        C262   1.360       .  A
C262        N263   1.385       .  A
C262        C819   1.510   1_455  S
C264        N265   1.358       .  A
C264        C391   1.509   1_655  S
O266        C269   1.276   1_455  A
O266       Cd271   2.586   1_455  S
C267        C388   1.513       .  S
C267        O276   1.264       .  A
C267        O272   1.274       .  A
O268        C274   1.268       .  A
O268       Cd271   2.501   1_455  S
C269        C392   1.514       .  S
C269        O277   1.264       .  A
C270        C398   1.450       .  S
C270        O275   1.268       .  A
C270        O273   1.268       .  A
Cd271       O278   2.488   1_655  S
Cd271       O277   2.526       .  S
Cd271       O708   2.516   1_655  S
Cd271       O704   2.593       .  S
Cd271       O707   2.495       .  S
Cd271       O705   2.491       .  S
O272       Cd703   2.589       .  S
O273       Cd703   2.487       .  S
C274        C396   1.450       .  S
C274        O278   1.266       .  A
O275       Cd703   2.496       .  S
O276       Cd703   2.529       .  S
O279        C282   1.275       .  A
O279       Cd716   2.586       .  S
C280        C375   1.515   1_455  S
C280        O289   1.264       .  A
C280        O285   1.275   1_455  A
O281        C287   1.268       .  A
O281       Cd716   2.505       .  S
C282        C380   1.512       .  S
C282        O290   1.264       .  A
C283        C372   1.452       .  S
C283        O288   1.268       .  A
C283        O286   1.266       .  A
Cd284       O711   2.585   1_455  S
Cd284       O713   2.509   1_455  S
Cd284       O723   2.500   1_455  S
Cd284       O722   2.518       .  S
Cd284       O289   2.530       .  S
Cd284       O285   2.596   1_455  S
Cd284       O288   2.499       .  S
Cd284       O286   2.497       .  S
C287        C373   1.451       .  S
C287        O291   1.266       .  A
O290       Cd716   2.519       .  S
O291       Cd716   2.491       .  S
C292        N297   1.352       .  A
C292        C367   1.444       .  S
N293        C294   1.359       .  A
C294        C811   1.508       .  S
N295        C296   1.386       .  A
C296        N297   1.361       .  A
C296        C376   1.512       .  S
O298        C301   1.269       .  A
O298       Cd303   2.516       .  S
C299        C364   1.493       .  S
C299        O308   1.265       .  A
C299        O304   1.266       .  A
O300        C306   1.266       .  A
O300       Cd303   2.517       .  S
C301        C359   1.489       .  S
C301        O309   1.264       .  A
C302        C374   1.451       .  S
C302        O307   1.266       .  A
C302        O305   1.263       .  A
Cd303       O310   2.499       .  S
Cd303       O309   2.490       .  S
Cd303       O308   2.526       .  S
Cd303       O304   2.514       .  S
Cd303       O307   2.515       .  S
Cd303       O305   2.494       .  S
C306        C371   1.452       .  S
C306        O310   1.264       .  A
C311        N316   1.356       .  A
C311        C429   1.442       .  S
N312        C313   1.364       .  A
C313        C363   1.495       .  S
N314        C315   1.368       .  A
C315        N316   1.359       .  A
C315        C360   1.489       .  S
C317        N318   1.360       .  A
C317        C802   1.444       .  S
N318        C319   1.358       .  A
C319        N320   1.353       .  A
C319        C351   1.434       .  S
C321        N322   1.359       .  A
C321        C355   1.435       .  S
C323        N324   1.364       .  A
C323        N328   1.361       .  A
C323        C349   1.444       .  S
N324        C325   1.361       .  A
C325        N326   1.351       .  A
C325        C348   1.436       .  S
N326        C327   1.351       .  A
C327        N328   1.358       .  A
C327        C344   1.434       .  S
C329        N330   1.362       .  A
C329        N334   1.361       .  A
C329        C782   1.442       .  S
N330        C331   1.360       .  A
C331        N332   1.352       .  A
C331        C358   1.434       .  S
N332        C333   1.352       .  A
C333        N334   1.359       .  A
C333        C354   1.434       .  S
C335        N340   1.361   1_455  A
C335        C386   1.445       .  S
N336        C337   1.362       .  A
C337        C345   1.437       .  S
N338        C339   1.353   1_454  A
C339        N340   1.360       .  A
C339        C341   1.435       .  S
C341        C774   1.205       .  T
C342        C773   1.206       .  T
C342        C343   1.412       .  S
C343        C776   1.205       .  T
C344        C775   1.205       .  T
C345        C346   1.207       .  T
C346        C779   1.414       .  S
C347        C780   1.205       .  T
C347        C778   1.410       .  S
C348        C779   1.207       .  T
C349        C350   1.211       .  T
C350        C761   1.444       .  S
C351        C352   1.205       .  T
C352        C785   1.411       .  S
C353        C786   1.207       .  T
C353        C784   1.414       .  S
C354        C785   1.205       .  T
C355        C788   1.205       .  T
C356        C787   1.206       .  T
C356        C789   1.412       .  S
C357        C358   1.205       .  T
C357        C788   1.412       .  S
C359        C360   1.346       .  D
C359        H361   1.086       .  S
C360        H362   1.087       .  S
C363        C364   1.353       .  D
C363        H365   1.086       .  S
C364        H366   1.086       .  S
C369        C370   1.211       .  T
C370        C749   1.445       .  S
C371        C372   1.216       .  T
C373        C374   1.215       .  T
C375        C376   1.351       .  D
C375        H377   1.086   1_655  S
C376        H810   1.087       .  S
H378        C808   1.087       .  S
C379        C726   1.509       .  S
C379        C380   1.349       .  D
C379        H813   1.087       .  S
C380        H382   1.086       .  S
H381        C811   1.087       .  S
C384        C817   1.422       .  S
C385        C602   1.212       .  T
C385        C816   1.423       .  S
C386        C601   1.211       .  T
C387        C694   1.510       .  S
C387        C388   1.350       .  D
C387        H821   1.087       .  S
C388        H390   1.086       .  S
H389        C819   1.087       .  S
C391        C392   1.349   1_455  D
C391        H393   1.087       .  S
C392        H826   1.086       .  S
H394        C824   1.086       .  S
C395        C396   1.215       .  T
C397        C398   1.215       .  T
C399        C400   1.349       .  D
C399        H401   1.087       .  S
C400        H402   1.085       .  S
C403        C404   1.349       .  D
C403        H405   1.086       .  S
C404        H406   1.084       .  S
C407        C408   1.208   1_556  T
C408        C409   1.416       .  S
C411        C412   1.204       .  T
C412        C413   1.410       .  S
C413        C414   1.204       .  T
C415        C416   1.203       .  T
C416        C417   1.409       .  S
C417        C418   1.204       .  T
C419        C420   1.210   1_565  T
C421        C422   1.203       .  T
C422        C423   1.408       .  S
C423        C424   1.203       .  T
C425        C426   1.206       .  T
C426        C427   1.413       .  S
C427        C428   1.206       .  T
C430        C431   1.423       .  S
C433        N434   1.363       .  A
C433        N654   1.362   1_554  A
C433        C864   1.447       .  S
N434        C435   1.361       .  A
C435        N436   1.351       .  A
C435        C641   1.435       .  S
N436        C653   1.351   1_554  A
C437        N652   1.351       .  A
C437        N438   1.360       .  A
C437        C640   1.433       .  S
N438        C649   1.363       .  A
C439        N440   1.360       .  A
C439        N444   1.362       .  A
C439        C635   1.442       .  S
N440        C441   1.359       .  A
C441        N442   1.352       .  A
C441        C631   1.432       .  S
N442        C443   1.352       .  A
C443        N444   1.360       .  A
C443        C627   1.435       .  S
C445        N446   1.362       .  A
C445        N450   1.363       .  A
C445        C636   1.443       .  S
N446        C447   1.359       .  A
C447        N448   1.350       .  A
C447        C637   1.433       .  S
N448        C449   1.350       .  A
C449        N450   1.361       .  A
C449        C644   1.434       .  S
C451        N452   1.361       .  A
C451        N672   1.362   1_554  A
C451        C626   1.441   1_554  S
N452        C453   1.358       .  A
C453        N454   1.351       .  A
C453        C634   1.431       .  S
N454        C671   1.351   1_554  A
C455        N670   1.351       .  A
C455        N456   1.359       .  A
C455        C630   1.434       .  S
N456        C667   1.361       .  A
C457        N674   1.349       .  A
C457        N462   1.351       .  A
C457        C623   1.443       .  S
N458        C673   1.351   1_554  A
N458        C459   1.360       .  A
C459        N676   1.384       .  A
C459        C619   1.510       .  S
N460        C675   1.385       .  A
N460        C461   1.386       .  A
C461        N462   1.361       .  A
C461        C615   1.511       .  S
O463        C466   1.276       .  A
O463       Cd468   2.596       .  S
C464        C620   1.513       .  S
C464        O473   1.264       .  A
C464        O469   1.276       .  A
O465        C471   1.267       .  A
O465       Cd468   2.505       .  S
C466        C616   1.514       .  S
C466        O474   1.264       .  A
C467        C611   1.452       .  S
C467        O472   1.268       .  A
C467        O470   1.267       .  A
Cd468       O475   2.499       .  S
Cd468       O474   2.522       .  S
Cd468       O473   2.518       .  S
Cd468       O469   2.597       .  S
Cd468       O472   2.500       .  S
Cd468       O470   2.497       .  S
C471        C613   1.453       .  S
C471        O475   1.266       .  A
C476        N477   1.352       .  A
C476        N697   1.352       .  A
C476        C599   1.447       .  S
N477        C478   1.361       .  A
C478        N479   1.385       .  A
N479        C696   1.385       .  A
C480        N695   1.385   1_554  A
C480        N481   1.360       .  A
C480        C607   1.511       .  S
N481        C692   1.352   1_554  A
O482        C485   1.275       .  A
O482       Cd487   2.593       .  S
C483        C604   1.514       .  S
C483        O492   1.264       .  A
C483        O488   1.274       .  A
O484        C490   1.267       .  A
O484       Cd487   2.510       .  S
C485        C608   1.514       .  S
C485        O493   1.264       .  A
C486        C614   1.453       .  S
C486        O491   1.267       .  A
C486        O489   1.266       .  A
Cd487       O494   2.499       .  S
Cd487       O493   2.525       .  S
C490        C612   1.452       .  S
C490        O494   1.265       .  A
O495        C498   1.275       .  A
C496        C591   1.512       .  S
C496        O505   1.264       .  A
C496        O501   1.275       .  A
O497        C503   1.267       .  A
C498        C596   1.511       .  S
C498        O506   1.264   1_655  A
C499        C588   1.449       .  S
C499        O504   1.268       .  A
C499        O502   1.266       .  A
Cd500       O505   2.522       .  S
Cd500       O501   2.584       .  S
Cd500       O504   2.497       .  S
Cd500       O502   2.484       .  S
C503        C589   1.453       .  S
C503        O507   1.265       .  A
C508        N725   1.351       .  A
C508        N513   1.350       .  A
C508        C583   1.443       .  S
N509        C724   1.349   1_554  A
N509        C510   1.358       .  A
C510        N727   1.385   1_554  A
N511        C726   1.385       .  A
N511        C512   1.384       .  A
C512        N513   1.359       .  A
C512        C592   1.508       .  S
O514        C517   1.268       .  A
O514       Cd519   2.529       .  S
C515        C580   1.491       .  S
C515        O524   1.265       .  A
C515        O520   1.266       .  A
O516        C522   1.266       .  A
O516       Cd519   2.512       .  S
C517        C575   1.492       .  S
C517        O525   1.264       .  A
C518        C590   1.452       .  S
C518        O523   1.266       .  A
C518        O521   1.264       .  A
Cd519       O526   2.495       .  S
Cd519       O525   2.501       .  S
Cd519       O524   2.527       .  S
Cd519       O520   2.501       .  S
Cd519       O523   2.517       .  S
Cd519       O521   2.499       .  S
C522        C587   1.449       .  S
C522        O526   1.263       .  A
C527        N744   1.359       .  A
C527        N532   1.357       .  A
C527        C645   1.445       .  S
N528        C743   1.359       .  A
N528        C529   1.363       .  A
C529        N746   1.368   1_554  A
C529        C579   1.495       .  S
N530        C745   1.367       .  A
N530        C531   1.366       .  A
C531        N532   1.359       .  A
C531        C576   1.492       .  S
C533        N534   1.360   1_655  A
C533        N754   1.362       .  A
N534        C535   1.359       .  A
C535        N536   1.353   1_455  A
C535        C567   1.435       .  S
N536        C753   1.353       .  A
C537        N752   1.352       .  A
C537        N538   1.361       .  A
C537        C571   1.436       .  S
N538        C749   1.363   1_455  A
C539        N540   1.362       .  A
C539        N544   1.364       .  A
C539        C565   1.446       .  S
N540        C541   1.359       .  A
C541        N542   1.351       .  A
C541        C564   1.436       .  S
N542        C543   1.352       .  A
C543        N544   1.361       .  A
C543        C560   1.438       .  S
C545        N546   1.363       .  A
C545        N550   1.361       .  A
N546        C547   1.361       .  A
C547        N548   1.352       .  A
C547        C574   1.436       .  S
N548        C549   1.351       .  A
C549        N550   1.359       .  A
C549        C570   1.434       .  S
C551        N768   1.362       .  A
C551        N556   1.364       .  A
C551        C602   1.447       .  S
N552        C767   1.363   1_554  A
N552        C553   1.361       .  A
C553        N770   1.352   1_554  A
C553        C561   1.436       .  S
N554        C769   1.352       .  A
N554        C555   1.351       .  A
C555        N556   1.361       .  A
C555        C557   1.438       .  S
C558        C559   1.412       .  S
C561        C562   1.206       .  T
C565        C566   1.212       .  T
C567        C568   1.205       .  T
C573        C574   1.206       .  T
C575        C576   1.348       .  D
C575        H577   1.085       .  S
C576        H578   1.086       .  S
C579        C580   1.354       .  D
C579        H581   1.084       .  S
C580        H582   1.084       .  S
C583        C800   1.210       .  T
C584        C799   1.210       .  T
C584        C801   1.420       .  S
C585        C586   1.209       .  T
C585        C800   1.418       .  S
C587        C588   1.214       .  T
C589        C590   1.216       .  T
C591        C592   1.349       .  D
C591        H593   1.086       .  S
C595        C596   1.348       .  D
C596        H598   1.086   1_655  S
C599        C816   1.212       .  T
C600        C815   1.212       .  T
C603        C604   1.350       .  D
C604        H606   1.086   1_655  S
C607        C608   1.350       .  D
C607        H609   1.087       .  S
C611        C612   1.216       .  T
C613        C614   1.216       .  T
C615        C616   1.349       .  D
C615        H617   1.088       .  S
C616        H618   1.087       .  S
C619        C620   1.349       .  D
C619        H621   1.087       .  S
C620        H622   1.086       .  S
C623        C624   1.210       .  T
C624        C625   1.419       .  S
C625        C842   1.210       .  T
C626        C841   1.209       .  T
C627        C628   1.205       .  T
C628        C629   1.412       .  S
C629        C630   1.205       .  T
C631        C632   1.204       .  T
C632        C633   1.409       .  S
C633        C634   1.203       .  T
C635        C636   1.210   1_565  T
C637        C638   1.205       .  T
C638        C639   1.411       .  S
C639        C640   1.205       .  T
C641        C642   1.206       .  T
C642        C643   1.413       .  S
C643        C644   1.206       .  T
C645        C862   1.211       .  T
C646        C861   1.212       .  T
C646        C647   1.423       .  S
C647        C864   1.212       .  T
C648        C649   1.445       .  S
C648        C863   1.211       .  T
C649        N650   1.362       .  A
N650        C651   1.359       .  A
C651        N652   1.350       .  A
C651        C857   1.433       .  S
C653        N654   1.360       .  A
C653        C856   1.434       .  S
C655        N656   1.362       .  A
C655        N660   1.361       .  A
C655        C851   1.442   1_565  S
N656        C657   1.360       .  A
C657        N658   1.351       .  A
C657        C847   1.434       .  S
N658        C659   1.351       .  A
C659        N660   1.359       .  A
C659        C843   1.432       .  S
C661        N662   1.362       .  A
C661        N666   1.362       .  A
C661        C852   1.442       .  S
N662        C663   1.359       .  A
C663        N664   1.351       .  A
C663        C853   1.435       .  S
N664        C665   1.352       .  A
C665        N666   1.359       .  A
C665        C860   1.433       .  S
C667        N668   1.362       .  A
C667        C842   1.443       .  S
N668        C669   1.360       .  A
C669        N670   1.352       .  A
C669        C850   1.434       .  S
C671        N672   1.360       .  A
C671        C846   1.433       .  S
C673        N678   1.350       .  A
C673        C839   1.442       .  S
N674        C675   1.358       .  A
C675        C835   1.508       .  S
N676        C677   1.384   1_554  A
C677        N678   1.359       .  A
C677        C831   1.507       .  S
O679        C682   1.275       .  A
O679       Cd684   2.583       .  S
C680        C836   1.512       .  S
C680        O689   1.264       .  A
C680        O685   1.275       .  A
O681        C687   1.267       .  A
O681       Cd684   2.505       .  S
C682        C832   1.511       .  S
C682        O690   1.264       .  A
C683        C827   1.448       .  S
C683        O688   1.268       .  A
C683        O686   1.265       .  A
Cd684       O691   2.487       .  S
Cd684       O690   2.521       .  S
Cd684       O689   2.529       .  S
Cd684       O685   2.573       .  S
Cd684       O688   2.496       .  S
Cd684       O686   2.484       .  S
C687        C829   1.450       .  S
C687        O691   1.265       .  A
C692        N693   1.352       .  A
C692        C815   1.446       .  S
N693        C694   1.360       .  A
C694        N695   1.385       .  A
C696        N697   1.360       .  A
C696        C823   1.510       .  S
O698        C701   1.274       .  A
O698       Cd703   2.592       .  S
C699        C820   1.513       .  S
C699        O708   1.264       .  A
C699        O704   1.276   1_455  A
O700        C706   1.266       .  A
O700       Cd703   2.510       .  S
C701        C824   1.513       .  S
C701        O709   1.263       .  A
C702        C830   1.449       .  S
C702        O707   1.268       .  A
C702        O705   1.266       .  A
Cd703       O710   2.487       .  S
Cd703       O709   2.526       .  S
C706        C828   1.448       .  S
C706        O710   1.263       .  A
O711        C714   1.275   1_655  A
C712        C807   1.513       .  S
C712        O721   1.264       .  A
C712        O717   1.275       .  A
O713        C719   1.267       .  A
C714        C812   1.511       .  S
C714        O722   1.264       .  A
C715        C804   1.452       .  S
C715        O720   1.268       .  A
C715        O718   1.266       .  A
Cd716       O721   2.526       .  S
Cd716       O717   2.582       .  S
Cd716       O720   2.505       .  S
Cd716       O718   2.493       .  S
C719        C805   1.453       .  S
C719        O723   1.265       .  A
C724        N729   1.351       .  A
C724        C799   1.443       .  S
N725        C726   1.360       .  A
N727        C728   1.385       .  A
C728        N729   1.361       .  A
C728        C808   1.509       .  S
O730        C733   1.268       .  A
O730       Cd735   2.526       .  S
C731        C796   1.490       .  S
C731        O740   1.265       .  A
C731        O736   1.266       .  A
O732        C738   1.266       .  A
O732       Cd735   2.517       .  S
C733        C791   1.493       .  S
C733        O741   1.265       .  A
C734        C806   1.453       .  S
C734        O739   1.266       .  A
C734        O737   1.264       .  A
Cd735       O742   2.499       .  S
Cd735       O741   2.504       .  S
Cd735       O740   2.519       .  S
Cd735       O736   2.509       .  S
Cd735       O739   2.519       .  S
Cd735       O737   2.507       .  S
C738        C803   1.452       .  S
C738        O742   1.263       .  A
C743        N748   1.358   1_554  A
C743        C861   1.447       .  S
N744        C745   1.364       .  A
C745        C795   1.493       .  S
N746        C747   1.367       .  A
C747        N748   1.360       .  A
C747        C792   1.493       .  S
C749        N750   1.362   1_554  A
N750        C751   1.360       .  A
C751        N752   1.352   1_656  A
C751        C783   1.436       .  S
C753        N754   1.360       .  A
C753        C787   1.436       .  S
C755        N756   1.362       .  A
C755        N760   1.362       .  A
C755        C781   1.443       .  S
N756        C757   1.359       .  A
C757        N758   1.351       .  A
C757        C780   1.433       .  S
N758        C759   1.351       .  A
C759        N760   1.360       .  A
C759        C776   1.434       .  S
C761        N762   1.361       .  A
C761        N766   1.363       .  A
N762        C763   1.359       .  A
C763        N764   1.352       .  A
C763        C790   1.435       .  S
N764        C765   1.352       .  A
C765        N766   1.361       .  A
C765        C786   1.436       .  S
C767        N772   1.362       .  A
C767        C818   1.446       .  S
N768        C769   1.360       .  A
C769        C777   1.434       .  S
N770        C771   1.352       .  A
C771        N772   1.360       .  A
C771        C773   1.435       .  S
C774        C775   1.411       .  S
C777        C778   1.205       .  T
C781        C782   1.210       .  T
C783        C784   1.207       .  T
C789        C790   1.206       .  T
C791        C792   1.349       .  D
C791        H793   1.086       .  S
C792        H794   1.086       .  S
C795        C796   1.353       .  D
C795        H797   1.088       .  S
C796        H798   1.088       .  S
C801        C802   1.211       .  T
C803        C804   1.215       .  T
C805        C806   1.216       .  T
C807        C808   1.349       .  D
C807        H809   1.086       .  S
C811        C812   1.348   1_655  D
C812        H814   1.086       .  S
C819        C820   1.349   1_655  D
C820        H822   1.086       .  S
C823        C824   1.350       .  D
C823        H825   1.087       .  S
C827        C828   1.213       .  T
C829        C830   1.214       .  T
C831        C832   1.348       .  D
C831        H833   1.089       .  S
C832        H834   1.087       .  S
C835        C836   1.349       .  D
C835        H837   1.088       .  S
C836        H838   1.086       .  S
C839        C840   1.209       .  T
C840        C841   1.417       .  S
C843        C844   1.204       .  T
C844        C845   1.410       .  S
C845        C846   1.204       .  T
C847        C848   1.205       .  T
C848        C849   1.411       .  S
C849        C850   1.205       .  T
C851        C852   1.210       .  T
C853        C854   1.205       .  T
C854        C855   1.412       .  S
C855        C856   1.205       .  T
C857        C858   1.205       .  T
C858        C859   1.411       .  S
C859        C860   1.205       .  T
C862        C863   1.421       .  S
