geometry optimzed in LAMMPS
_audit_creation_date              2020-11-30 
_audit_creation_method            'lammps2cif' 
_symmetry_space_group_name_H-M    'P1' 
_symmetry_Int_Tables_number       1 
_symmetry_cell_setting            triclinic 
loop_ 
_symmetry_equiv_pos_as_xyz 
  x,y,z 
_cell_length_a                    31.2488279 
_cell_length_b                    28.082688207609813 
_cell_length_c                    28.08722753707349 
_cell_angle_alpha                 89.7408396170986 
_cell_angle_beta                  90.01803085868298 
_cell_angle_gamma                 90.68460985191385 
loop_ 
_atom_site_label 
_atom_site_type_symbol 
_atom_site_fract_x 
_atom_site_fract_y 
_atom_site_fract_z 
_atom_site_charge 
C1          C  0.77183678  0.29264580  0.43614346     0.79600
N2          N  0.74695474  0.29245375  0.39654724    -0.78700
C3          C  0.73407700  0.00085639  0.37686107     0.82100
N4          N  0.74589150  0.04288938  0.39713077    -0.78600
C5          C  0.77087181  0.04317840  0.43671135     0.82200
N6          N  0.78381696  0.33469364  0.45597473    -0.80300
In7        In  0.66235970  0.99941704  0.25275952     1.36900
C8          C  0.70803444  0.00040290  0.33351886     0.77000
O9          O  0.65833016  0.25404693  0.24343899    -0.61400
O10         O  0.69832069  0.29369724  0.19592226    -0.52400
C11         C  0.57696502  0.99760355  0.25376417     0.69700
O12         O  0.59918609  0.99592702  0.29116318    -0.47200
C13         C  0.68475210  0.07986122  0.20946896     0.74400
O14         O  0.69315191  0.37077014  0.31502447    -0.59100
O15         O  0.70034928  0.04029546  0.19782021    -0.49200
O16         O  0.69909388  0.96287544  0.31139056    -0.55500
C17         C  0.68402883  0.25339761  0.20885212     0.84600
O18         O  0.59858933  0.33315529  0.21599949    -0.57400
O19         O  0.65760925  0.07795957  0.24261053    -0.60700
C20         C  0.69680168  0.20880458  0.18644252     0.79600
N21         N  0.68464433  0.16664633  0.20629841    -0.78700
C22         C  0.69738316  0.12496617  0.18698030     0.82100
N23         N  0.72217302  0.12547189  0.14735522    -0.78600
C24         C  0.73405416  0.16754946  0.12700294     0.82200
N25         N  0.72155109  0.20922354  0.14674088    -0.80300
In26       In  0.80580789  0.16816353  0.00327528     1.36900
C27         C  0.75974008  0.16786043  0.08352389     0.77000
O28         O  0.81046439  0.24692557  0.99313283    -0.61400
O29         O  0.76990255  0.20772577  0.44627712    -0.52400
C30         C  0.89115573  0.16821519  0.00625083     0.69700
O31         O  0.86851164  0.17053805  0.04323050    -0.47200
C32         C  0.78335170  0.08810360  0.45952577     0.74400
O33         O  0.77080350  0.20547914  0.06240417    -0.59100
O34         O  0.76975560  0.12819241  0.44617649    -0.49200
O35         O  0.77227236  0.13044763  0.06397720    -0.55500
C36         C  0.78456211  0.24788540  0.45873921     0.84600
O37         O  0.87001859  0.16618240  0.46816273    -0.57400
O38         O  0.80837641  0.08927752  0.99472889    -0.60700
C39         C  0.27134780  0.12582738  0.18576390     0.79600
N40         N  0.28376329  0.16794434  0.20511658    -0.78700
C41         C  0.27069263  0.20969717  0.18581090     0.82100
N42         N  0.24535158  0.20927452  0.14651709    -0.78600
C43         C  0.23305363  0.16715100  0.12676331     0.82200
N44         N  0.24586331  0.12549362  0.14664559    -0.80300
In45       In  0.16155299  0.16533932  0.00250324     1.36900
C46         C  0.20700488  0.16654570  0.08342581     0.77000
O47         O  0.15901819  0.08618274  0.99376536    -0.61400
O48         O  0.19714233  0.12627951  0.44500408    -0.52400
C49         C  0.07606936  0.16497360  0.00482302     0.69700
O50         O  0.09864675  0.16756278  0.04189903    -0.47200
C51         C  0.18410671  0.24547269  0.45820412     0.74400
O52         O  0.19352713  0.12876671  0.06464174    -0.59100
O53         O  0.20015094  0.20585634  0.44751654    -0.49200
O54         O  0.19684938  0.20370520  0.06144829    -0.55500
C55         C  0.18390349  0.08574806  0.45844638     0.84600
O56         O  0.09733284  0.16243130  0.46689329    -0.57400
O57         O  0.15622827  0.24369016  0.99061403    -0.60700
C58         C  0.19686585  0.04119078  0.43574955     0.79600
N59         N  0.22210438  0.04172777  0.39636114    -0.78700
C60         C  0.23488631  0.00010508  0.37659163     0.82100
N61         N  0.22259992  0.29124414  0.39658330    -0.78600
C62         C  0.19718999  0.29060940  0.43580193     0.82200
N63         N  0.18436347  0.99893132  0.45512612    -0.80300
In64       In  0.30640502  0.33459986  0.25195630     1.36900
C65         C  0.26098750  0.33397161  0.33316627     0.77000
O66         O  0.31139473  0.08006328  0.24158812    -0.61400
O67         O  0.26931576  0.04101021  0.19619619    -0.52200
C68         C  0.39190913  0.00090855  0.25248477     0.69700
O69         O  0.36991154  0.33539228  0.29005106    -0.47200
C70         C  0.28348093  0.25466657  0.20829956     0.74400
O71         O  0.27167387  0.03828996  0.31182809    -0.59100
O72         O  0.26904673  0.29464867  0.19581094    -0.49200
O73         O  0.27402801  0.29673359  0.31368031    -0.55500
C74         C  0.28451521  0.08110336  0.20810149     0.84600
O75         O  0.37004678  0.00047998  0.21486399    -0.57400
O76         O  0.30959594  0.25593672  0.24247688    -0.60700
C77         C  0.00676829  0.17688681  0.04752894    -0.21900
C78         C  0.02875341  0.16523515  0.00558585    -0.09900
C79         C  0.00507647  0.15439997  0.46434974     0.28900
C80         C  0.96046408  0.15561946  0.46510902    -0.21900
C81         C  0.93842211  0.16741656  0.00687469    -0.09900
C82         C  0.96197925  0.17807060  0.04828231     0.28900
F83         F  0.94191960  0.19038006  0.08920696    -0.20500
H84         H  0.02428052  0.18557324  0.07967754     0.17300
H85         H  0.94309627  0.14695245  0.43285258     0.17300
F86         F  0.02488276  0.14204088  0.42329879    -0.20400
C87         C  0.50731851  0.00090204  0.21054246    -0.21900
C88         C  0.52962729  0.99755086  0.25383425    -0.09900
C89         C  0.50625584  0.32833312  0.29660557     0.28900
C90         C  0.46153049  0.32954436  0.29584475    -0.21900
C91         C  0.43923806  0.99982692  0.25256944    -0.09900
C92         C  0.46262709  0.00204314  0.20976197     0.28900
F93         F  0.44249424  0.00575720  0.16709182    -0.20500
H94         H  0.52450559  0.00295854  0.17710498     0.17300
H95         H  0.44430627  0.32756854  0.32926065     0.17300
F96         F  0.52647767  0.32479468  0.33922174    -0.20400
C97         C  0.77183678  0.29264576  0.93614353     0.79600
N98         N  0.74695476  0.29245373  0.89654732    -0.78700
C99         C  0.73407696  0.00085640  0.87686105     0.82100
N100        N  0.74589147  0.04288931  0.89713076    -0.78600
C101        C  0.77087179  0.04317843  0.93671136     0.82200
N102        N  0.78381694  0.33469362  0.95597469    -0.80300
In103      In  0.66235972  0.99941707  0.75275952     1.36900
C104        C  0.70803440  0.00040293  0.83351885     0.77000
O105        O  0.65833016  0.25404684  0.74343900    -0.61400
O106        O  0.69832066  0.29369728  0.69592231    -0.52400
C107        C  0.57696505  0.99760379  0.75376409     0.69700
O108        O  0.59918605  0.99592701  0.79116321    -0.47200
C109        C  0.68475212  0.07986116  0.70946891     0.74400
O110        O  0.69315187  0.37077004  0.81502446    -0.59100
O111        O  0.70034946  0.04029536  0.69782043    -0.49200
O112        O  0.69909390  0.96287534  0.81139064    -0.55500
C113        C  0.68402880  0.25339763  0.70885209     0.84600
O114        O  0.59858937  0.33315528  0.71599946    -0.57400
O115        O  0.65760931  0.07795961  0.74261048    -0.60700
C116        C  0.69680160  0.20880465  0.68644241     0.79600
N117        N  0.68464431  0.16664644  0.70629839    -0.78700
C118        C  0.69738316  0.12496617  0.68698028     0.82100
N119        N  0.72217302  0.12547180  0.64735519    -0.78600
C120        C  0.73405422  0.16754939  0.62700292     0.82200
N121        N  0.72155105  0.20922350  0.64674081    -0.80300
In122      In  0.80580791  0.16816344  0.50327515     1.36900
C123        C  0.75974009  0.16786047  0.58352373     0.77000
O124        O  0.81046439  0.24692546  0.49313276    -0.61400
O125        O  0.76990253  0.20772579  0.94627721    -0.52400
C126        C  0.89115567  0.16821539  0.50625084     0.69700
O127        O  0.86851145  0.17053807  0.54323046    -0.47200
C128        C  0.78335170  0.08810369  0.95952582     0.74400
O129        O  0.77080357  0.20547914  0.56240389    -0.59100
O130        O  0.76975562  0.12819248  0.94617664    -0.49200
O131        O  0.77227235  0.13044768  0.56397710    -0.55500
C132        C  0.78456213  0.24788542  0.95873927     0.84600
O133        O  0.87001853  0.16618247  0.96816280    -0.57400
O134        O  0.80837648  0.08927734  0.49472880    -0.60700
C135        C  0.27134783  0.12582737  0.68576398     0.79600
N136        N  0.28376326  0.16794436  0.70511655    -0.78700
C137        C  0.27069253  0.20969713  0.68581083     0.82100
N138        N  0.24535143  0.20927442  0.64651708    -0.78600
C139        C  0.23305368  0.16715086  0.62676331     0.82200
N140        N  0.24586329  0.12549353  0.64664579    -0.80300
In141      In  0.16155298  0.16533929  0.50250324     1.36900
C142        C  0.20700490  0.16654559  0.58342580     0.77000
O143        O  0.15901807  0.08618282  0.49376524    -0.61400
O144        O  0.19714235  0.12627958  0.94500396    -0.52400
C145        C  0.07606941  0.16497367  0.50482306     0.69700
O146        O  0.09864674  0.16756293  0.54189908    -0.47200
C147        C  0.18410670  0.24547263  0.95820408     0.74400
O148        O  0.19352704  0.12876664  0.56464182    -0.59100
O149        O  0.20015098  0.20585627  0.94751652    -0.49200
O150        O  0.19684948  0.20370506  0.56144816    -0.55500
C151        C  0.18390361  0.08574808  0.95844643     0.84600
O152        O  0.09733279  0.16243124  0.96689327    -0.57400
O153        O  0.15622828  0.24369011  0.49061404    -0.60700
C154        C  0.19686588  0.04119076  0.93574954     0.79600
N155        N  0.22210438  0.04172771  0.89636108    -0.78700
C156        C  0.23488627  0.00010498  0.87659167     0.82100
N157        N  0.22259991  0.29124411  0.89658329    -0.78600
C158        C  0.19718999  0.29060930  0.93580193     0.82200
N159        N  0.18436353  0.99893130  0.95512622    -0.80300
In160      In  0.30640513  0.33459983  0.75195628     1.36900
C161        C  0.26098753  0.33397174  0.83316624     0.77000
O162        O  0.31139475  0.08006335  0.74158815    -0.61400
O163        O  0.26931574  0.04101020  0.69619623    -0.52200
C164        C  0.39190912  0.00090844  0.75248479     0.69700
O165        O  0.36991174  0.33539217  0.79005108    -0.47200
C166        C  0.28348084  0.25466651  0.70829951     0.74400
O167        O  0.27167370  0.03828979  0.81182798    -0.59100
O168        O  0.26904696  0.29464869  0.69581081    -0.49200
O169        O  0.27402809  0.29673372  0.81368032    -0.55500
C170        C  0.28451522  0.08110337  0.70810154     0.84600
O171        O  0.37004680  0.00047988  0.71486402    -0.57400
O172        O  0.30959571  0.25593659  0.74247694    -0.60700
C173        C  0.00676841  0.17688695  0.54752913    -0.21900
C174        C  0.02875356  0.16523542  0.50558597    -0.09900
C175        C  0.00507633  0.15439991  0.96434952     0.28900
C176        C  0.96046401  0.15561944  0.96510889    -0.21900
C177        C  0.93842217  0.16741672  0.50687487    -0.09900
C178        C  0.96197933  0.17807069  0.54828247     0.28900
F179        F  0.94191960  0.19038031  0.58920699    -0.20500
H180        H  0.02428065  0.18557410  0.57967764     0.17300
H181        H  0.94309600  0.14695245  0.93285210     0.17300
F182        F  0.02488276  0.14204072  0.92329871    -0.20400
C183        C  0.50731849  0.00090198  0.71054243    -0.21900
C184        C  0.52962732  0.99755090  0.75383419    -0.09900
C185        C  0.50625586  0.32833326  0.79660542     0.28900
C186        C  0.46153053  0.32954458  0.79584457    -0.21900
C187        C  0.43923798  0.99982694  0.75256946    -0.09900
C188        C  0.46262704  0.00204315  0.70976199     0.28900
F189        F  0.44249425  0.00575709  0.66709182    -0.20500
H190        H  0.52450562  0.00295934  0.67710498     0.17300
H191        H  0.44430628  0.32756942  0.82926048     0.17300
F192        F  0.52647762  0.32479493  0.83922165    -0.20400
C193        C  0.77183686  0.62597919  0.43614345     0.79600
N194        N  0.74695472  0.62578712  0.39654736    -0.78700
C195        C  0.73407686  0.33418972  0.37686109     0.82100
N196        N  0.74589144  0.37622263  0.39713081    -0.78600
C197        C  0.77087175  0.37651171  0.43671136     0.82200
N198        N  0.78381698  0.66802701  0.45597469    -0.80300
In199      In  0.66235974  0.33275051  0.25275949     1.36900
C200        C  0.70803434  0.33373634  0.33351891     0.77000
O201        O  0.65833027  0.58738026  0.24343889    -0.61400
O202        O  0.69832048  0.62703061  0.19592219    -0.52400
C203        C  0.57696506  0.33093709  0.25376407     0.69700
O204        O  0.59918607  0.32926041  0.29116318    -0.47200
C205        C  0.68475197  0.41319459  0.20946882     0.74400
O206        O  0.69315176  0.70410321  0.31502445    -0.59100
O207        O  0.70034941  0.37362886  0.19782022    -0.49200
O208        O  0.69909383  0.29620884  0.31139062    -0.55500
C209        C  0.68402873  0.58673094  0.20885191     0.84600
O210        O  0.59858932  0.66648871  0.21599946    -0.57400
O211        O  0.65760925  0.41129315  0.24261057    -0.60700
C212        C  0.69680158  0.54213788  0.18644236     0.79600
N213        N  0.68464427  0.49997966  0.20629838    -0.78700
C214        C  0.69738307  0.45829947  0.18698026     0.82100
N215        N  0.72217293  0.45880517  0.14735520    -0.78600
C216        C  0.73405418  0.50088272  0.12700289     0.82200
N217        N  0.72155103  0.54255681  0.14674074    -0.80300
In218      In  0.80580787  0.50149674  0.00327517     1.36900
C219        C  0.75974005  0.50119376  0.08352370     0.77000
O220        O  0.81046443  0.58025868  0.99313265    -0.61400
O221        O  0.76990251  0.54105923  0.44627726    -0.52400
C222        C  0.89115561  0.50154846  0.00625087     0.69700
O223        O  0.86851139  0.50387134  0.04323050    -0.47200
C224        C  0.78335162  0.42143696  0.45952576     0.74400
O225        O  0.77080350  0.53881252  0.06240388    -0.59100
O226        O  0.76975550  0.46152577  0.44617647    -0.49200
O227        O  0.77227229  0.46378084  0.06397713    -0.55500
C228        C  0.78456221  0.58121882  0.45873916     0.84600
O229        O  0.87001855  0.49951568  0.46816273    -0.57400
O230        O  0.80837639  0.42261073  0.99472866    -0.60700
C231        C  0.27134792  0.45916068  0.18576382     0.79600
N232        N  0.28376324  0.50127769  0.20511660    -0.78700
C233        C  0.27069253  0.54303050  0.18581092     0.82100
N234        N  0.24535149  0.54260780  0.14651711    -0.78600
C235        C  0.23305366  0.50048420  0.12676329     0.82200
N236        N  0.24586334  0.45882681  0.14664558    -0.80300
In237      In  0.16155307  0.49867265  0.00250305     1.36900
C238        C  0.20700496  0.49987900  0.08342573     0.77000
O239        O  0.15901820  0.41951613  0.99376528    -0.61400
O240        O  0.19714241  0.45961289  0.44500392    -0.52400
C241        C  0.07606948  0.49830705  0.00482285     0.69700
O242        O  0.09864695  0.50089624  0.04189881    -0.47200
C243        C  0.18410662  0.57880602  0.45820403     0.74400
O244        O  0.19352710  0.46210016  0.06464166    -0.59100
O245        O  0.20015100  0.53918975  0.44751649    -0.49200
O246        O  0.19684951  0.53703835  0.06144808    -0.55500
C247        C  0.18390362  0.41908142  0.45844636     0.84600
O248        O  0.09733293  0.49576436  0.46689328    -0.57400
O249        O  0.15622840  0.57702347  0.99061394    -0.60700
C250        C  0.19686591  0.37452405  0.43574949     0.79600
N251        N  0.22210438  0.37506096  0.39636096    -0.78700
C252        C  0.23488635  0.33343829  0.37659163     0.82100
N253        N  0.22259976  0.62457740  0.39658325    -0.78600
C254        C  0.19718991  0.62394267  0.43580197     0.82200
N255        N  0.18436346  0.33226463  0.45512619    -0.80300
In256      In  0.30640507  0.66793325  0.25195629     1.36900
C257        C  0.26098749  0.66730495  0.33316618     0.77000
O258        O  0.31139473  0.41339668  0.24158808    -0.61400
O259        O  0.26931577  0.37434369  0.19619616    -0.52200
C260        C  0.39190911  0.33424188  0.25248478     0.69700
O261        O  0.36991163  0.66872578  0.29005108    -0.47200
C262        C  0.28348090  0.58799998  0.20829945     0.74400
O263        O  0.27167375  0.37162323  0.31182805    -0.59100
O264        O  0.26904689  0.62798212  0.19581089    -0.49200
O265        O  0.27402809  0.63006696  0.31368020    -0.55500
C266        C  0.28451511  0.41443682  0.20810160     0.84600
O267        O  0.37004678  0.33381339  0.21486401    -0.57400
O268        O  0.30959578  0.58927011  0.24247681    -0.60700
C269        C  0.00676844  0.51022024  0.04752895    -0.21900
C270        C  0.02875358  0.49856862  0.00558584    -0.09900
C271        C  0.00507647  0.48773323  0.46434969     0.28900
C272        C  0.96046413  0.48895279  0.46510904    -0.21900
C273        C  0.93842210  0.50075006  0.00687470    -0.09900
C274        C  0.96197936  0.51140390  0.04828239     0.28900
F275        F  0.94191955  0.52371345  0.08920689    -0.20500
H276        H  0.02428074  0.51890678  0.07967789     0.17300
H277        H  0.94309628  0.48028552  0.43285268     0.17300
F278        F  0.02488276  0.47537427  0.42329870    -0.20400
C279        C  0.50731852  0.33423536  0.21054240    -0.21900
C280        C  0.52962732  0.33088414  0.25383416    -0.09900
C281        C  0.50625581  0.66166655  0.29660545     0.28900
C282        C  0.46153049  0.66287778  0.29584464    -0.21900
C283        C  0.43923799  0.33316029  0.25256942    -0.09900
C284        C  0.46262706  0.33537646  0.20976198     0.28900
F285        F  0.44249423  0.33909062  0.16709185    -0.20500
H286        H  0.52450562  0.33629213  0.17710496     0.17300
H287        H  0.44430629  0.66090249  0.32926059     0.17300
F288        F  0.52647759  0.65812810  0.33922165    -0.20400
C289        C  0.77183686  0.62597915  0.93614350     0.79600
N290        N  0.74695473  0.62578698  0.89654745    -0.78700
C291        C  0.73407686  0.33418975  0.87686112     0.82100
N292        N  0.74589141  0.37622276  0.89713074    -0.78600
C293        C  0.77087176  0.37651174  0.93671127     0.82200
N294        N  0.78381705  0.66802706  0.95597465    -0.80300
In295      In  0.66235973  0.33275043  0.75275952     1.36900
C296        C  0.70803431  0.33373628  0.83351894     0.77000
O297        O  0.65833022  0.58738021  0.74343913    -0.61400
O298        O  0.69832060  0.62703058  0.69592212    -0.52400
C299        C  0.57696507  0.33093684  0.75376401     0.69700
O300        O  0.59918600  0.32926041  0.79116316    -0.47200
C301        C  0.68475205  0.41319451  0.70946895     0.74400
O302        O  0.69315191  0.70410343  0.81502445    -0.59100
O303        O  0.70034944  0.37362874  0.69782046    -0.49200
O304        O  0.69909383  0.29620875  0.81139066    -0.55500
C305        C  0.68402886  0.58673094  0.70885216     0.84600
O306        O  0.59858926  0.66648859  0.71599951    -0.57400
O307        O  0.65760921  0.41129293  0.74261055    -0.60700
C308        C  0.69680164  0.54213796  0.68644245     0.79600
N309        N  0.68464429  0.49997974  0.70629838    -0.78700
C310        C  0.69738313  0.45829954  0.68698032     0.82100
N311        N  0.72217299  0.45880525  0.64735525    -0.78600
C312        C  0.73405418  0.50088278  0.62700294     0.82200
N313        N  0.72155108  0.54255687  0.64674082    -0.80300
In314      In  0.80580786  0.50149679  0.50327516     1.36900
C315        C  0.75973993  0.50119371  0.58352376     0.77000
O316        O  0.81046449  0.58025881  0.49313266    -0.61400
O317        O  0.76990247  0.54105915  0.94627724    -0.52400
C318        C  0.89115567  0.50154841  0.50625086     0.69700
O319        O  0.86851143  0.50387136  0.54323045    -0.47200
C320        C  0.78335149  0.42143693  0.95952577     0.74400
O321        O  0.77080350  0.53881239  0.56240410    -0.59100
O322        O  0.76975557  0.46152573  0.94617638    -0.49200
O323        O  0.77227237  0.46378098  0.56397714    -0.55500
C324        C  0.78456217  0.58121874  0.95873918     0.84600
O325        O  0.87001854  0.49951575  0.96816273    -0.57400
O326        O  0.80837639  0.42261071  0.49472880    -0.60700
C327        C  0.27134777  0.45916064  0.68576391     0.79600
N328        N  0.28376323  0.50127762  0.70511660    -0.78700
C329        C  0.27069253  0.54303045  0.68581092     0.82100
N330        N  0.24535150  0.54260776  0.64651712    -0.78600
C331        C  0.23305356  0.50048423  0.62676339     0.82200
N332        N  0.24586327  0.45882685  0.64664564    -0.80300
In333      In  0.16155308  0.49867266  0.50250324     1.36900
C334        C  0.20700495  0.49987896  0.58342582     0.77000
O335        O  0.15901824  0.41951620  0.49376533    -0.61400
O336        O  0.19714244  0.45961281  0.94500375    -0.52400
C337        C  0.07606951  0.49830703  0.50482303     0.69700
O338        O  0.09864695  0.50089632  0.54189901    -0.47200
C339        C  0.18410694  0.57880609  0.95820409     0.74400
O340        O  0.19352711  0.46209999  0.56464185    -0.59100
O341        O  0.20015116  0.53918979  0.94751636    -0.49200
O342        O  0.19684956  0.53703846  0.56144821    -0.55500
C343        C  0.18390363  0.41908137  0.95844633     0.84600
O344        O  0.09733279  0.49576469  0.96689303    -0.57400
O345        O  0.15622826  0.57702345  0.49061402    -0.60700
C346        C  0.19686588  0.37452400  0.93574954     0.79600
N347        N  0.22210433  0.37506099  0.89636102    -0.78700
C348        C  0.23488631  0.33343831  0.87659163     0.82100
N349        N  0.22259991  0.62457756  0.89658314    -0.78600
C350        C  0.19719002  0.62394274  0.93580184     0.82200
N351        N  0.18436344  0.33226457  0.95512622    -0.80300
In352      In  0.30640508  0.66793320  0.75195631     1.36900
C353        C  0.26098746  0.66730509  0.83316620     0.77000
O354        O  0.31139473  0.41339661  0.74158803    -0.61400
O355        O  0.26931581  0.37434342  0.69619618    -0.52200
C356        C  0.39190921  0.33424189  0.75248465     0.69700
O357        O  0.36991153  0.66872555  0.79005114    -0.47200
C358        C  0.28348091  0.58799989  0.70829949     0.74400
O359        O  0.27167386  0.37162333  0.81182800    -0.59100
O360        O  0.26904690  0.62798206  0.69581094    -0.49200
O361        O  0.27402803  0.63006706  0.81368029    -0.55500
C362        C  0.28451506  0.41443664  0.70810159     0.84600
O363        O  0.37004690  0.33381327  0.71486377    -0.57400
O364        O  0.30959579  0.58927003  0.74247686    -0.60700
C365        C  0.00676840  0.51022013  0.54752911    -0.21900
C366        C  0.02875354  0.49856859  0.50558597    -0.09900
C367        C  0.00507637  0.48773330  0.96434949     0.28900
C368        C  0.96046402  0.48895275  0.96510893    -0.21900
C369        C  0.93842221  0.50074983  0.50687493    -0.09900
C370        C  0.96197936  0.51140394  0.54828251     0.28900
F371        F  0.94191963  0.52371336  0.58920704    -0.20500
H372        H  0.02428082  0.51890651  0.57967784     0.17300
H373        H  0.94309603  0.48028585  0.93285204     0.17300
F374        F  0.02488271  0.47537412  0.92329863    -0.20400
C375        C  0.50731857  0.33423524  0.71054234    -0.21900
C376        C  0.52962739  0.33088427  0.75383400    -0.09900
C377        C  0.50625580  0.66166653  0.79660561     0.28900
C378        C  0.46153044  0.66287774  0.79584479    -0.21900
C379        C  0.43923806  0.33316022  0.75256930    -0.09900
C380        C  0.46262716  0.33537645  0.70976187     0.28900
F381        F  0.44249423  0.33909048  0.66709181    -0.20500
H382        H  0.52450578  0.33629171  0.67710454     0.17300
H383        H  0.44430629  0.66090276  0.82926073     0.17300
F384        F  0.52647759  0.65812797  0.83922177    -0.20400
C385        C  0.77183696  0.95931244  0.43614344     0.79600
N386        N  0.74695483  0.95912037  0.39654732    -0.78700
C387        C  0.73407684  0.66752309  0.37686120     0.82100
N388        N  0.74589143  0.70955603  0.39713087    -0.78600
C389        C  0.77087191  0.70984509  0.43671127     0.82200
N390        N  0.78381699  0.00136025  0.45597478    -0.80300
In391      In  0.66235967  0.66608373  0.25275947     1.36900
C392        C  0.70803440  0.66706962  0.33351891     0.77000
O393        O  0.65833021  0.92071343  0.24343918    -0.61400
O394        O  0.69832060  0.96036393  0.19592222    -0.52400
C395        C  0.57696501  0.66427034  0.25376402     0.69700
O396        O  0.59918597  0.66259350  0.29116314    -0.47200
C397        C  0.68475205  0.74652783  0.20946886     0.74400
O398        O  0.69315189  0.03743662  0.31502443    -0.59100
O399        O  0.70034943  0.70696205  0.19782039    -0.49200
O400        O  0.69909390  0.62954222  0.31139055    -0.55500
C401        C  0.68402872  0.92006426  0.20885208     0.84600
O402        O  0.59858932  0.99982187  0.21599968    -0.57400
O403        O  0.65760924  0.74462627  0.24261043    -0.60700
C404        C  0.69680169  0.87547121  0.18644246     0.79600
N405        N  0.68464422  0.83331300  0.20629830    -0.78700
C406        C  0.69738315  0.79163278  0.18698022     0.82100
N407        N  0.72217304  0.79213848  0.14735519    -0.78600
C408        C  0.73405435  0.83421604  0.12700299     0.82200
N409        N  0.72155110  0.87589011  0.14674083    -0.80300
In410      In  0.80580800  0.83483010  0.00327529     1.36900
C411        C  0.75973999  0.83452715  0.08352373     0.77000
O412        O  0.81046454  0.91359214  0.99313280    -0.61400
O413        O  0.76990243  0.87439253  0.44627715    -0.52400
C414        C  0.89115577  0.83488170  0.00625092     0.69700
O415        O  0.86851170  0.83720485  0.04323059    -0.47200
C416        C  0.78335173  0.75477029  0.45952573     0.74400
O417        O  0.77080359  0.87214593  0.06240405    -0.59100
O418        O  0.76975564  0.79485904  0.44617644    -0.49200
O419        O  0.77227237  0.79711425  0.06397729    -0.55500
C420        C  0.78456205  0.91455211  0.45873921     0.84600
O421        O  0.87001854  0.83284911  0.46816276    -0.57400
O422        O  0.80837661  0.75594388  0.99472885    -0.60700
C423        C  0.27134786  0.79249395  0.18576393     0.79600
N424        N  0.28376324  0.83461092  0.20511664    -0.78700
C425        C  0.27069253  0.87636373  0.18581095     0.82100
N426        N  0.24535143  0.87594108  0.14651724    -0.78600
C427        C  0.23305374  0.83381751  0.12676334     0.82200
N428        N  0.24586348  0.79216014  0.14664563    -0.80300
In429      In  0.16155309  0.83200606  0.00250324     1.36900
C430        C  0.20700491  0.83321234  0.08342590     0.77000
O431        O  0.15901818  0.75284969  0.99376523    -0.61400
O432        O  0.19714251  0.79294618  0.44500391    -0.52400
C433        C  0.07606952  0.83164034  0.00482305     0.69700
O434        O  0.09864693  0.83422958  0.04189905    -0.47200
C435        C  0.18410676  0.91213941  0.45820405     0.74400
O436        O  0.19352732  0.79543348  0.06464161    -0.59100
O437        O  0.20015111  0.87252313  0.44751645    -0.49200
O438        O  0.19684940  0.87037174  0.06144833    -0.55500
C439        C  0.18390378  0.75241471  0.45844641     0.84600
O440        O  0.09733281  0.82909792  0.46689301    -0.57400
O441        O  0.15622840  0.91035687  0.99061409    -0.60700
C442        C  0.19686581  0.70785740  0.43574947     0.79600
N443        N  0.22210440  0.70839437  0.39636103    -0.78700
C444        C  0.23488626  0.66677163  0.37659162     0.82100
N445        N  0.22259997  0.95791082  0.39658317    -0.78600
C446        C  0.19719004  0.95727608  0.43580181     0.82200
N447        N  0.18436339  0.66559793  0.45512622    -0.80300
In448      In  0.30640503  0.00126651  0.25195629     1.36900
C449        C  0.26098747  0.00063841  0.33316626     0.77000
O450        O  0.31139492  0.74673014  0.24158796    -0.61400
O451        O  0.26931583  0.70767692  0.19619633    -0.52200
C452        C  0.39190917  0.66757509  0.25248476     0.69700
O453        O  0.36991153  0.00205887  0.29005104    -0.47200
C454        C  0.28348077  0.92133314  0.20829969     0.74400
O455        O  0.27167378  0.70495659  0.31182802    -0.59100
O456        O  0.26904670  0.96131528  0.19581103    -0.49200
O457        O  0.27402797  0.96340040  0.31368028    -0.55500
C458        C  0.28451528  0.74777010  0.20810153     0.84600
O459        O  0.37004685  0.66714656  0.21486399    -0.57400
O460        O  0.30959584  0.92260331  0.24247691    -0.60700
C461        C  0.00676841  0.84355356  0.04752909    -0.21900
C462        C  0.02875359  0.83190206  0.00558597    -0.09900
C463        C  0.00507632  0.82106654  0.46434952     0.28900
C464        C  0.96046402  0.82228621  0.46510898    -0.21900
C465        C  0.93842224  0.83408330  0.00687491    -0.09900
C466        C  0.96197936  0.84473734  0.04828251     0.28900
F467        F  0.94191965  0.85704692  0.08920699    -0.20500
H468        H  0.02428087  0.85224029  0.07967771     0.17300
H469        H  0.94309602  0.81361893  0.43285213     0.17300
F470        F  0.02488270  0.80870735  0.42329863    -0.20400
C471        C  0.50731846  0.66756862  0.21054234    -0.21900
C472        C  0.52962732  0.66421756  0.25383399    -0.09900
C473        C  0.50625584  0.99499996  0.29660562     0.28900
C474        C  0.46153058  0.99621115  0.29584480    -0.21900
C475        C  0.43923801  0.66649354  0.25256934    -0.09900
C476        C  0.46262707  0.66870979  0.20976183     0.28900
F477        F  0.44249411  0.67242367  0.16709175    -0.20500
H478        H  0.52450573  0.66962581  0.17710451     0.17300
H479        H  0.44430642  0.99423579  0.32926077     0.17300
F480        F  0.52647762  0.99146152  0.33922173    -0.20400
C481        C  0.77183697  0.95931254  0.93614348     0.79600
N482        N  0.74695482  0.95912048  0.89654734    -0.78700
C483        C  0.73407689  0.66752303  0.87686125     0.82100
N484        N  0.74589154  0.70955603  0.89713088    -0.78600
C485        C  0.77087186  0.70984514  0.93671135     0.82200
N486        N  0.78381698  0.00136038  0.95597482    -0.80300
In487      In  0.66235972  0.66608379  0.75275950     1.36900
C488        C  0.70803449  0.66706967  0.83351888     0.77000
O489        O  0.65833019  0.92071340  0.74343916    -0.61400
O490        O  0.69832059  0.96036386  0.69592215    -0.52400
C491        C  0.57696500  0.66427036  0.75376408     0.69700
O492        O  0.59918601  0.66259370  0.79116320    -0.47200
C493        C  0.68475210  0.74652795  0.70946894     0.74400
O494        O  0.69315183  0.03743673  0.81502446    -0.59100
O495        O  0.70034938  0.70696222  0.69782024    -0.49200
O496        O  0.69909384  0.62954219  0.81139062    -0.55500
C497        C  0.68402869  0.92006421  0.70885205     0.84600
O498        O  0.59858931  0.99982190  0.71599948    -0.57400
O499        O  0.65760932  0.74462631  0.74261060    -0.60700
C500        C  0.69680160  0.87547124  0.68644239     0.79600
N501        N  0.68464424  0.83331301  0.70629835    -0.78700
C502        C  0.69738308  0.79163288  0.68698018     0.82100
N503        N  0.72217302  0.79213859  0.64735512    -0.78600
C504        C  0.73405420  0.83421611  0.62700282     0.82200
N505        N  0.72155110  0.87589020  0.64674076    -0.80300
In506      In  0.80580787  0.83483015  0.50327518     1.36900
C507        C  0.75974001  0.83452702  0.58352375     0.77000
O508        O  0.81046446  0.91359215  0.49313257    -0.61400
O509        O  0.76990274  0.87439242  0.94627723    -0.52400
C510        C  0.89115562  0.83488183  0.50625089     0.69700
O511        O  0.86851143  0.83720477  0.54323049    -0.47200
C512        C  0.78335186  0.75477022  0.95952580     0.74400
O513        O  0.77080355  0.87214584  0.56240423    -0.59100
O514        O  0.76975579  0.79485903  0.94617661    -0.49200
O515        O  0.77227225  0.79711416  0.56397705    -0.55500
C516        C  0.78456223  0.91455210  0.95873930     0.84600
O517        O  0.87001858  0.83284896  0.96816285    -0.57400
O518        O  0.80837650  0.75594417  0.49472876    -0.60700
C519        C  0.27134780  0.79249405  0.68576390     0.79600
N520        N  0.28376327  0.83461105  0.70511660    -0.78700
C521        C  0.27069248  0.87636381  0.68581096     0.82100
N522        N  0.24535146  0.87594109  0.64651716    -0.78600
C523        C  0.23305365  0.83381758  0.62676324     0.82200
N524        N  0.24586335  0.79216021  0.64664552    -0.80300
In525      In  0.16155309  0.83200599  0.50250306     1.36900
C526        C  0.20700475  0.83321242  0.58342579     0.77000
O527        O  0.15901820  0.75284949  0.49376514    -0.61400
O528        O  0.19714244  0.79294624  0.94500405    -0.52400
C529        C  0.07606948  0.83164030  0.50482282     0.69700
O530        O  0.09864699  0.83422953  0.54189878    -0.47200
C531        C  0.18410681  0.91213942  0.95820413     0.74400
O532        O  0.19352710  0.79543344  0.56464168    -0.59100
O533        O  0.20015112  0.87252311  0.94751656    -0.49200
O534        O  0.19684948  0.87037187  0.56144802    -0.55500
C535        C  0.18390371  0.75241477  0.95844649     0.84600
O536        O  0.09733292  0.82909804  0.96689325    -0.57400
O537        O  0.15622835  0.91035679  0.49061405    -0.60700
C538        C  0.19686576  0.70785735  0.93574954     0.79600
N539        N  0.22210433  0.70839434  0.89636110    -0.78700
C540        C  0.23488627  0.66677174  0.87659157     0.82100
N541        N  0.22259997  0.95791076  0.89658335    -0.78600
C542        C  0.19718993  0.95727605  0.93580186     0.82200
N543        N  0.18436347  0.66559790  0.95512625    -0.80300
In544      In  0.30640502  0.00126651  0.75195628     1.36900
C545        C  0.26098733  0.00063825  0.83316619     0.77000
O546        O  0.31139485  0.74672996  0.74158799    -0.61400
O547        O  0.26931583  0.70767691  0.69619634    -0.52200
C548        C  0.39190906  0.66757519  0.75248480     0.69700
O549        O  0.36991156  0.00205909  0.79005105    -0.47200
C550        C  0.28348081  0.92133325  0.70829947     0.74400
O551        O  0.27167378  0.70495667  0.81182800    -0.59100
O552        O  0.26904677  0.96131540  0.69581090    -0.49200
O553        O  0.27402803  0.96340028  0.81368033    -0.55500
C554        C  0.28451524  0.74777008  0.70810152     0.84600
O555        O  0.37004678  0.66714666  0.71486395    -0.57400
O556        O  0.30959569  0.92260333  0.74247683    -0.60700
C557        C  0.00676842  0.84355355  0.54752899    -0.21900
C558        C  0.02875353  0.83190202  0.50558588    -0.09900
C559        C  0.00507654  0.82106648  0.96434977     0.28900
C560        C  0.96046421  0.82228603  0.96510910    -0.21900
C561        C  0.93842209  0.83408326  0.50687478    -0.09900
C562        C  0.96197938  0.84473734  0.54828244     0.28900
F563        F  0.94191962  0.85704673  0.58920692    -0.20500
H564        H  0.02428099  0.85223990  0.57967810     0.17300
H565        H  0.94309642  0.81361872  0.93285270     0.17300
F566        F  0.02488281  0.80870754  0.92329873    -0.20400
C567        C  0.50731836  0.66756864  0.71054243    -0.21900
C568        C  0.52962724  0.66421741  0.75383422    -0.09900
C569        C  0.50625585  0.99499981  0.79660558     0.28900
C570        C  0.46153054  0.99621105  0.79584477    -0.21900
C571        C  0.43923791  0.66649369  0.75256946    -0.09900
C572        C  0.46262692  0.66870973  0.70976206     0.28900
F573        F  0.44249417  0.67242389  0.66709187    -0.20500
H574        H  0.52450517  0.66962538  0.67710506     0.17300
H575        H  0.44430643  0.99423571  0.82926080     0.17300
F576        F  0.52647764  0.99146137  0.83922173    -0.20400
loop_ 
_geom_bond_atom_site_label_1 
_geom_bond_atom_site_label_2 
_geom_bond_distance 
_geom_bond_site_symmetry_2 
_ccdc_geom_bond_type 
C1            N2   1.357       .  A
C1            N6   1.356       .  A
C1           C36   1.465       .  S
N2          C195   1.359       .  A
C3            N4   1.360       .  A
C3          N386   1.359   1_545  A
C3            C8   1.464       .  S
N4            C5   1.358       .  A
C5          N390   1.357       .  A
C5           C32   1.466       .  S
N6          C197   1.357       .  A
In7          O12   2.251       .  S
In7          O15   2.250   1_565  S
In7          O16   2.257       .  S
In7          O19   2.229   1_565  S
In7         O393   2.229       .  S
In7         O394   2.250       .  S
In7         O402   2.244       .  S
In7         O398   2.262   1_565  S
C8           O16   1.255   1_545  A
C8          O398   1.255       .  A
O9         In199   2.229       .  S
O9           C17   1.261       .  A
O10        In199   2.250       .  S
O10          C17   1.264       .  A
C11          C88   1.479       .  S
C11          O12   1.260       .  A
C11         O402   1.259       .  A
C13          C22   1.463       .  S
C13          O15   1.263       .  A
C13          O19   1.260       .  A
O14        In199   2.262       .  S
O14         C200   1.255       .  A
C17          C20   1.464       .  S
O18        In199   2.244       .  S
O18         C203   1.259       .  A
C20          N21   1.357       .  A
C20          N25   1.357       .  A
N21          C22   1.356       .  A
C22          N23   1.356       .  A
N23          C24   1.358       .  A
C24          N25   1.359       .  A
C24          C27   1.462       .  S
In26         O28   2.232   1_554  S
In26         O31   2.258       .  S
In26         O33   2.258       .  S
In26         O35   2.255       .  S
In26         O38   2.232   1_554  S
In26        O125   2.251   1_554  S
In26        O133   2.237   1_554  S
In26        O130   2.255   1_554  S
C27          O33   1.254       .  A
C27          O35   1.255       .  A
O28         C132   1.261       .  A
O29        In122   2.251       .  S
O29          C36   1.263       .  A
C30          C81   1.478       .  S
C30          O31   1.259       .  A
C30         O133   1.258   1_554  A
C32          O34   1.263       .  A
C32         O134   1.261       .  A
O34        In122   2.255       .  S
C36         O124   1.261       .  A
O37        In122   2.237       .  S
O37         C126   1.258       .  A
O38         C128   1.261       .  A
C39          N40   1.356       .  A
C39          N44   1.357       .  A
C39          C74   1.465       .  S
N40          C41   1.357       .  A
C41          N42   1.358       .  A
C41          C70   1.466       .  S
N42          C43   1.360       .  A
C43          N44   1.359       .  A
C43          C46   1.464       .  S
In45         O47   2.238   1_554  S
In45         O50   2.258       .  S
In45         O52   2.260       .  S
In45         O54   2.259       .  S
In45         O57   2.232   1_554  S
In45        O144   2.257   1_554  S
In45        O152   2.243   1_554  S
In45        O149   2.255   1_554  S
C46          O52   1.255       .  A
C46          O54   1.254       .  A
O47         C151   1.261       .  A
O48        In141   2.257       .  S
O48          C55   1.263       .  A
C49          C78   1.479       .  S
C49          O50   1.260       .  A
C49         O152   1.258   1_554  A
C51          C62   1.466       .  S
C51          O53   1.263       .  A
C51         O153   1.261       .  A
O53        In141   2.255       .  S
C55          C58   1.468       .  S
C55         O143   1.261       .  A
O56        In141   2.243       .  S
O56         C145   1.258       .  A
O57         C147   1.261       .  A
C58          N59   1.359       .  A
C58          N63   1.357   1_545  A
N59          C60   1.361       .  A
C60         N445   1.360   1_545  A
C60         C449   1.467       .  S
N61          C62   1.358       .  A
N61         C252   1.360       .  A
C62         N255   1.357       .  A
N63         C446   1.357       .  A
In64         O69   2.254       .  S
In64         O72   2.257       .  S
In64         O73   2.262       .  S
In64         O76   2.230       .  S
In64        O258   2.234       .  S
In64        O259   2.249       .  S
In64        O267   2.246       .  S
In64        O263   2.265       .  S
C65         C252   1.467       .  S
C65          O73   1.255       .  A
C65         O263   1.255       .  A
O66        In448   2.234       .  S
O66          C74   1.261       .  A
O67        In448   2.248       .  S
O67          C74   1.263       .  A
C68          C91   1.480   1_545  S
C68          O75   1.258       .  A
C68         O453   1.260       .  A
O69         C260   1.260       .  A
C70          O72   1.263       .  A
C70          O76   1.260       .  A
O71        In448   2.265       .  S
O71         C449   1.255       .  A
O75        In448   2.246       .  S
C77          C78   1.406       .  A
C77          C82   1.401   1_455  A
C77          H84   1.083       .  S
C78         C175   1.407   1_554  A
C79          C80   1.395   1_455  A
C79         C174   1.407       .  A
C79          F86   1.357       .  S
C80         C177   1.403       .  A
C80          H85   1.083       .  S
C81          C82   1.408       .  A
C81         C176   1.403   1_554  A
C82          F83   1.358       .  S
C87          C88   1.405   1_545  A
C87          C92   1.397       .  A
C87          H94   1.083       .  S
C88         C473   1.407       .  A
C89          C90   1.399       .  A
C89         C280   1.407       .  A
C89          F96   1.357       .  S
C90         C283   1.405       .  A
C90          H95   1.083       .  S
C91          C92   1.408   1_565  A
C91         C474   1.405       .  A
C92          F93   1.358       .  S
C97          N98   1.357       .  A
C97         N102   1.356       .  A
C97         C132   1.465       .  S
N98         C291   1.359       .  A
C99         N482   1.359   1_545  A
C99         N100   1.360       .  A
C99         C104   1.464       .  S
N100        C101   1.358       .  A
C101        N486   1.357       .  A
C101        C128   1.466       .  S
N102        C293   1.357       .  A
In103       O489   2.229       .  S
In103       O490   2.250       .  S
In103       O498   2.244       .  S
In103       O108   2.251       .  S
In103       O494   2.262   1_565  S
In103       O111   2.250   1_565  S
In103       O112   2.257       .  S
In103       O115   2.229   1_565  S
C104        O494   1.255       .  A
C104        O112   1.255   1_545  A
O105       In295   2.229       .  S
O105        C113   1.261       .  A
O106       In295   2.250       .  S
O106        C113   1.264       .  A
C107        C184   1.479       .  S
C107        O498   1.259       .  A
C107        O108   1.260       .  A
C109        C118   1.463       .  S
C109        O111   1.263       .  A
C109        O115   1.260       .  A
O110       In295   2.262       .  S
O110        C296   1.255       .  A
C113        C116   1.464       .  S
O114       In295   2.244       .  S
O114        C299   1.259       .  A
C116        N117   1.357       .  A
C116        N121   1.357       .  A
N117        C118   1.356       .  A
C118        N119   1.356       .  A
N119        C120   1.358       .  A
C120        N121   1.359       .  A
C120        C123   1.462       .  S
In122       O124   2.232       .  S
In122       O127   2.258       .  S
In122       O129   2.258       .  S
In122       O131   2.255       .  S
In122       O134   2.232       .  S
C123        O129   1.254       .  A
C123        O131   1.255       .  A
O125        C132   1.263       .  A
C126        C177   1.478       .  S
C126        O127   1.259       .  A
C128        O130   1.263       .  A
C135        N136   1.356       .  A
C135        N140   1.357       .  A
C135        C170   1.465       .  S
N136        C137   1.357       .  A
C137        N138   1.358       .  A
C137        C166   1.466       .  S
N138        C139   1.360       .  A
C139        N140   1.359       .  A
C139        C142   1.464       .  S
In141       O143   2.238       .  S
In141       O146   2.258       .  S
In141       O148   2.260       .  S
In141       O150   2.259       .  S
In141       O153   2.232       .  S
C142        O148   1.255       .  A
C142        O150   1.254       .  A
O144        C151   1.263       .  A
C145        C174   1.479       .  S
C145        O146   1.260       .  A
C147        C158   1.466       .  S
C147        O149   1.263       .  A
C151        C154   1.468       .  S
C154        N155   1.359       .  A
C154        N159   1.357   1_545  A
N155        C156   1.361       .  A
C156        N541   1.360   1_545  A
C156        C545   1.467       .  S
N157        C348   1.360       .  A
N157        C158   1.358       .  A
C158        N351   1.357       .  A
N159        C542   1.357       .  A
In160       O354   2.234       .  S
In160       O355   2.248       .  S
In160       O363   2.246       .  S
In160       O165   2.254       .  S
In160       O359   2.265       .  S
In160       O168   2.257       .  S
In160       O169   2.262       .  S
In160       O172   2.230       .  S
C161        C348   1.467       .  S
C161        O359   1.255       .  A
C161        O169   1.255       .  A
O162       In544   2.234       .  S
O162        C170   1.261       .  A
O163       In544   2.248       .  S
O163        C170   1.263       .  A
C164        C187   1.480   1_545  S
C164        O171   1.258       .  A
C164        O549   1.260       .  A
O165        C356   1.260       .  A
C166        O168   1.263       .  A
C166        O172   1.260       .  A
O167       In544   2.265       .  S
O167        C545   1.255       .  A
O171       In544   2.246       .  S
C173        C174   1.406       .  A
C173        C178   1.401   1_455  A
C173        H180   1.083       .  S
C175        C176   1.395   1_455  A
C175        F182   1.357       .  S
C176        H181   1.083       .  S
C177        C178   1.408       .  A
C178        F179   1.358       .  S
C183        C184   1.405   1_545  A
C183        C188   1.397       .  A
C183        H190   1.083       .  S
C184        C569   1.407       .  A
C185        C376   1.407       .  A
C185        C186   1.399       .  A
C185        F192   1.357       .  S
C186        C379   1.405       .  A
C186        H191   1.083       .  S
C187        C570   1.405       .  A
C187        C188   1.408   1_565  A
C188        F189   1.358       .  S
C193        N194   1.357       .  A
C193        N198   1.356       .  A
C193        C228   1.465       .  S
N194        C387   1.359       .  A
C195        N196   1.360       .  A
C195        C200   1.464       .  S
N196        C197   1.358       .  A
C197        C224   1.466       .  S
N198        C389   1.357       .  A
In199       O204   2.251       .  S
In199       O207   2.250       .  S
In199       O208   2.257       .  S
In199       O211   2.229       .  S
C200        O208   1.255       .  A
O201       In391   2.229       .  S
O201        C209   1.261       .  A
O202       In391   2.250       .  S
O202        C209   1.264       .  A
C203        C280   1.479       .  S
C203        O204   1.260       .  A
C205        C214   1.463       .  S
C205        O207   1.263       .  A
C205        O211   1.260       .  A
O206       In391   2.262       .  S
O206        C392   1.255       .  A
C209        C212   1.464       .  S
O210       In391   2.244       .  S
O210        C395   1.259       .  A
C212        N213   1.357       .  A
C212        N217   1.357       .  A
N213        C214   1.356       .  A
C214        N215   1.356       .  A
N215        C216   1.358       .  A
C216        N217   1.359       .  A
C216        C219   1.462       .  S
In218       O220   2.232   1_554  S
In218       O317   2.251   1_554  S
In218       O325   2.237   1_554  S
In218       O223   2.258       .  S
In218       O225   2.258       .  S
In218       O322   2.255   1_554  S
In218       O227   2.255       .  S
In218       O230   2.232   1_554  S
C219        O225   1.254       .  A
C219        O227   1.255       .  A
O220        C324   1.261       .  A
O221       In314   2.251       .  S
O221        C228   1.263       .  A
C222        C273   1.478       .  S
C222        O325   1.258   1_554  A
C222        O223   1.259       .  A
C224        O226   1.263       .  A
C224        O326   1.261       .  A
O226       In314   2.255       .  S
C228        O316   1.261       .  A
O229       In314   2.237       .  S
O229        C318   1.258       .  A
O230        C320   1.261       .  A
C231        N232   1.356       .  A
C231        N236   1.357       .  A
C231        C266   1.465       .  S
N232        C233   1.357       .  A
C233        N234   1.358       .  A
C233        C262   1.466       .  S
N234        C235   1.360       .  A
C235        N236   1.359       .  A
C235        C238   1.464       .  S
In237       O239   2.238   1_554  S
In237       O336   2.257   1_554  S
In237       O344   2.243   1_554  S
In237       O242   2.258       .  S
In237       O244   2.260       .  S
In237       O341   2.255   1_554  S
In237       O246   2.259       .  S
In237       O249   2.232   1_554  S
C238        O244   1.255       .  A
C238        O246   1.254       .  A
O239        C343   1.261       .  A
O240       In333   2.257       .  S
O240        C247   1.263       .  A
C241        C270   1.479       .  S
C241        O344   1.258   1_554  A
C241        O242   1.260       .  A
C243        C254   1.466       .  S
C243        O245   1.263       .  A
C243        O345   1.261       .  A
O245       In333   2.255       .  S
C247        C250   1.468       .  S
C247        O335   1.261       .  A
O248       In333   2.243       .  S
O248        C337   1.258       .  A
O249        C339   1.261       .  A
C250        N251   1.359       .  A
C250        N255   1.357       .  A
N251        C252   1.361       .  A
N253        C444   1.360       .  A
N253        C254   1.358       .  A
C254        N447   1.357       .  A
In256       O450   2.234       .  S
In256       O451   2.248       .  S
In256       O459   2.246       .  S
In256       O261   2.254       .  S
In256       O455   2.265       .  S
In256       O264   2.257       .  S
In256       O265   2.262       .  S
In256       O268   2.230       .  S
C257        C444   1.467       .  S
C257        O455   1.255       .  A
C257        O265   1.255       .  A
O258        C266   1.261       .  A
O259        C266   1.263       .  A
C260        C283   1.480       .  S
C260        O267   1.258       .  A
O261        C452   1.260       .  A
C262        O264   1.263       .  A
C262        O268   1.260       .  A
C269        C270   1.406       .  A
C269        C274   1.401   1_455  A
C269        H276   1.083       .  S
C270        C367   1.407   1_554  A
C271        C366   1.407       .  A
C271        C272   1.395   1_455  A
C271        F278   1.357       .  S
C272        C369   1.403       .  A
C272        H277   1.083       .  S
C273        C368   1.403   1_554  A
C273        C274   1.408       .  A
C274        F275   1.358       .  S
C279        C280   1.405       .  A
C279        C284   1.397       .  A
C279        H286   1.083       .  S
C281        C472   1.407       .  A
C281        C282   1.399       .  A
C281        F288   1.357       .  S
C282        C475   1.405       .  A
C282        H287   1.083       .  S
C283        C284   1.408       .  A
C284        F285   1.358       .  S
C289        N290   1.357       .  A
C289        N294   1.356       .  A
C289        C324   1.465       .  S
N290        C483   1.359       .  A
C291        N292   1.360       .  A
C291        C296   1.464       .  S
N292        C293   1.358       .  A
C293        C320   1.466       .  S
N294        C485   1.357       .  A
In295       O300   2.251       .  S
In295       O303   2.250       .  S
In295       O304   2.257       .  S
In295       O307   2.229       .  S
C296        O304   1.255       .  A
O297       In487   2.229       .  S
O297        C305   1.261       .  A
O298       In487   2.250       .  S
O298        C305   1.264       .  A
C299        C376   1.479       .  S
C299        O300   1.260       .  A
C301        C310   1.463       .  S
C301        O303   1.263       .  A
C301        O307   1.260       .  A
O302       In487   2.262       .  S
O302        C488   1.255       .  A
C305        C308   1.464       .  S
O306       In487   2.244       .  S
O306        C491   1.259       .  A
C308        N309   1.357       .  A
C308        N313   1.357       .  A
N309        C310   1.356       .  A
C310        N311   1.356       .  A
N311        C312   1.358       .  A
C312        N313   1.359       .  A
C312        C315   1.462       .  S
In314       O316   2.232       .  S
In314       O319   2.258       .  S
In314       O321   2.258       .  S
In314       O323   2.255       .  S
In314       O326   2.232       .  S
C315        O321   1.254       .  A
C315        O323   1.255       .  A
O317        C324   1.263       .  A
C318        C369   1.478       .  S
C318        O319   1.259       .  A
C320        O322   1.263       .  A
C327        N328   1.356       .  A
C327        N332   1.357       .  A
C327        C362   1.465       .  S
N328        C329   1.357       .  A
C329        N330   1.358       .  A
C329        C358   1.466       .  S
N330        C331   1.360       .  A
C331        N332   1.359       .  A
C331        C334   1.464       .  S
In333       O335   2.238       .  S
In333       O338   2.258       .  S
In333       O340   2.260       .  S
In333       O342   2.259       .  S
In333       O345   2.232       .  S
C334        O340   1.255       .  A
C334        O342   1.254       .  A
O336        C343   1.263       .  A
C337        C366   1.479       .  S
C337        O338   1.260       .  A
C339        C350   1.466       .  S
C339        O341   1.263       .  A
C343        C346   1.468       .  S
C346        N347   1.359       .  A
C346        N351   1.357       .  A
N347        C348   1.361       .  A
N349        C540   1.360       .  A
N349        C350   1.358       .  A
C350        N543   1.357       .  A
In352       O546   2.234       .  S
In352       O547   2.248       .  S
In352       O555   2.246       .  S
In352       O357   2.254       .  S
In352       O551   2.265       .  S
In352       O360   2.257       .  S
In352       O361   2.262       .  S
In352       O364   2.230       .  S
C353        C540   1.467       .  S
C353        O551   1.255       .  A
C353        O361   1.255       .  A
O354        C362   1.261       .  A
O355        C362   1.263       .  A
C356        C379   1.480       .  S
C356        O363   1.258       .  A
O357        C548   1.260       .  A
C358        O360   1.263       .  A
C358        O364   1.260       .  A
C365        C366   1.406       .  A
C365        C370   1.401   1_455  A
C365        H372   1.083       .  S
C367        C368   1.395   1_455  A
C367        F374   1.357       .  S
C368        H373   1.083       .  S
C369        C370   1.408       .  A
C370        F371   1.358       .  S
C375        C376   1.405       .  A
C375        C380   1.397       .  A
C375        H382   1.083       .  S
C377        C568   1.407       .  A
C377        C378   1.399       .  A
C377        F384   1.357       .  S
C378        C571   1.405       .  A
C378        H383   1.083       .  S
C379        C380   1.408       .  A
C380        F381   1.358       .  S
C385        N386   1.357       .  A
C385        N390   1.356   1_565  A
C385        C420   1.465       .  S
C387        N388   1.360       .  A
C387        C392   1.464       .  S
N388        C389   1.358       .  A
C389        C416   1.466       .  S
In391       O396   2.251       .  S
In391       O399   2.250       .  S
In391       O400   2.257       .  S
In391       O403   2.229       .  S
C392        O400   1.254       .  A
O393        C401   1.261       .  A
O394        C401   1.264       .  A
C395        C472   1.479       .  S
C395        O396   1.260       .  A
C397        C406   1.463       .  S
C397        O399   1.263       .  A
C397        O403   1.260       .  A
C401        C404   1.464       .  S
C404        N405   1.357       .  A
C404        N409   1.357       .  A
N405        C406   1.356       .  A
C406        N407   1.356       .  A
N407        C408   1.358       .  A
C408        N409   1.359       .  A
C408        C411   1.462       .  S
In410       O412   2.232   1_554  S
In410       O509   2.251   1_554  S
In410       O517   2.237   1_554  S
In410       O415   2.258       .  S
In410       O417   2.258       .  S
In410       O514   2.255   1_554  S
In410       O419   2.255       .  S
In410       O422   2.232   1_554  S
C411        O417   1.254       .  A
C411        O419   1.255       .  A
O412        C516   1.261       .  A
O413       In506   2.251       .  S
O413        C420   1.263       .  A
C414        C465   1.478       .  S
C414        O517   1.258   1_554  A
C414        O415   1.259       .  A
C416        O418   1.263       .  A
C416        O518   1.261       .  A
O418       In506   2.255       .  S
C420        O508   1.261       .  A
O421       In506   2.237       .  S
O421        C510   1.258       .  A
O422        C512   1.261       .  A
C423        N424   1.356       .  A
C423        N428   1.357       .  A
C423        C458   1.465       .  S
N424        C425   1.357       .  A
C425        N426   1.358       .  A
C425        C454   1.466       .  S
N426        C427   1.360       .  A
C427        N428   1.359       .  A
C427        C430   1.464       .  S
In429       O431   2.238   1_554  S
In429       O528   2.257   1_554  S
In429       O536   2.243   1_554  S
In429       O434   2.258       .  S
In429       O436   2.260       .  S
In429       O533   2.255   1_554  S
In429       O438   2.259       .  S
In429       O441   2.232   1_554  S
C430        O436   1.255       .  A
C430        O438   1.254       .  A
O431        C535   1.261       .  A
O432       In525   2.257       .  S
O432        C439   1.263       .  A
C433        C462   1.479       .  S
C433        O536   1.258   1_554  A
C433        O434   1.260       .  A
C435        C446   1.466       .  S
C435        O437   1.263       .  A
C435        O537   1.261       .  A
O437       In525   2.255       .  S
C439        C442   1.468       .  S
C439        O527   1.261       .  A
O440       In525   2.243       .  S
O440        C529   1.258       .  A
O441        C531   1.261       .  A
C442        N443   1.359       .  A
C442        N447   1.357       .  A
N443        C444   1.361       .  A
N445        C446   1.358       .  A
In448       O453   2.254       .  S
In448       O456   2.257   1_545  S
In448       O457   2.262   1_545  S
In448       O460   2.230   1_545  S
C449        O457   1.255   1_545  A
O450        C458   1.261       .  A
O451        C458   1.263       .  A
C452        C475   1.480       .  S
C452        O459   1.258       .  A
C454        O456   1.263       .  A
C454        O460   1.260       .  A
C461        C462   1.406       .  A
C461        C466   1.401   1_455  A
C461        H468   1.083       .  S
C462        C559   1.407   1_554  A
C463        C558   1.407       .  A
C463        C464   1.395   1_455  A
C463        F470   1.357       .  S
C464        C561   1.403       .  A
C464        H469   1.083       .  S
C465        C560   1.403   1_554  A
C465        C466   1.408       .  A
C466        F467   1.358       .  S
C471        C472   1.405       .  A
C471        C476   1.397       .  A
C471        H478   1.083       .  S
C473        C474   1.399       .  A
C473        F480   1.357       .  S
C474        H479   1.083       .  S
C475        C476   1.408       .  A
C476        F477   1.358       .  S
C481        N482   1.357       .  A
C481        N486   1.356   1_565  A
C481        C516   1.465       .  S
C483        N484   1.360       .  A
C483        C488   1.464       .  S
N484        C485   1.358       .  A
C485        C512   1.466       .  S
In487       O492   2.251       .  S
In487       O495   2.250       .  S
In487       O496   2.257       .  S
In487       O499   2.229       .  S
C488        O496   1.255       .  A
O489        C497   1.261       .  A
O490        C497   1.264       .  A
C491        C568   1.479       .  S
C491        O492   1.260       .  A
C493        C502   1.463       .  S
C493        O495   1.263       .  A
C493        O499   1.260       .  A
C497        C500   1.464       .  S
C500        N501   1.357       .  A
C500        N505   1.357       .  A
N501        C502   1.356       .  A
C502        N503   1.356       .  A
N503        C504   1.358       .  A
C504        N505   1.359       .  A
C504        C507   1.462       .  S
In506       O508   2.232       .  S
In506       O511   2.258       .  S
In506       O513   2.258       .  S
In506       O515   2.255       .  S
In506       O518   2.232       .  S
C507        O513   1.254       .  A
C507        O515   1.255       .  A
O509        C516   1.263       .  A
C510        C561   1.478       .  S
C510        O511   1.259       .  A
C512        O514   1.263       .  A
C519        N520   1.356       .  A
C519        N524   1.357       .  A
C519        C554   1.465       .  S
N520        C521   1.357       .  A
C521        N522   1.358       .  A
C521        C550   1.466       .  S
N522        C523   1.360       .  A
C523        N524   1.359       .  A
C523        C526   1.464       .  S
In525       O527   2.238       .  S
In525       O530   2.258       .  S
In525       O532   2.260       .  S
In525       O534   2.259       .  S
In525       O537   2.232       .  S
C526        O532   1.255       .  A
C526        O534   1.254       .  A
O528        C535   1.263       .  A
C529        C558   1.479       .  S
C529        O530   1.260       .  A
C531        C542   1.466       .  S
C531        O533   1.263       .  A
C535        C538   1.468       .  S
C538        N539   1.359       .  A
C538        N543   1.357       .  A
N539        C540   1.361       .  A
N541        C542   1.358       .  A
In544       O549   2.254       .  S
In544       O552   2.257   1_545  S
In544       O553   2.262   1_545  S
In544       O556   2.230   1_545  S
C545        O553   1.255   1_545  A
O546        C554   1.261       .  A
O547        C554   1.263       .  A
C548        C571   1.480       .  S
C548        O555   1.258       .  A
C550        O552   1.263       .  A
C550        O556   1.260       .  A
C557        C558   1.406       .  A
C557        C562   1.401   1_455  A
C557        H564   1.083       .  S
C559        C560   1.395   1_455  A
C559        F566   1.357       .  S
C560        H565   1.083       .  S
C561        C562   1.408       .  A
C562        F563   1.358       .  S
C567        C568   1.405       .  A
C567        C572   1.397       .  A
C567        H574   1.083       .  S
C569        C570   1.399       .  A
C569        F576   1.357       .  S
C570        H575   1.083       .  S
C571        C572   1.408       .  A
C572        F573   1.358       .  S
