geometry optimzed in LAMMPS
_audit_creation_date              2020-11-30 
_audit_creation_method            'lammps2cif' 
_symmetry_space_group_name_H-M    'P1' 
_symmetry_Int_Tables_number       1 
_symmetry_cell_setting            triclinic 
loop_ 
_symmetry_equiv_pos_as_xyz 
  x,y,z 
_cell_length_a                    52.90266926 
_cell_length_b                    52.24067459163682 
_cell_length_c                    41.15402714667355 
_cell_angle_alpha                 90.06535690255332 
_cell_angle_beta                  90.44094514970797 
_cell_angle_gamma                 89.9969994464887 
loop_ 
_atom_site_label 
_atom_site_type_symbol 
_atom_site_fract_x 
_atom_site_fract_y 
_atom_site_fract_z 
_atom_site_charge 
N1          N  0.31431611  0.04167790  0.58849669    -0.25600
N2          N  0.33605410  0.04981858  0.57660261    -0.33500
C3          C  0.34122850  0.03669381  0.54931165     0.02700
C4          C  0.32186720  0.01952044  0.54380708     0.08700
C5          C  0.30510558  0.02307932  0.56900997    -0.04400
H6          H  0.35799830  0.03929157  0.53479218     0.09400
H7          H  0.28768786  0.01276502  0.57311632     0.10600
Cu8        Cu  0.35817936  0.07800252  0.59805508     0.44200
Cu9        Cu  0.29856976  0.05589045  0.63116820     0.42000
Cu10       Cu  0.33394151  0.10633382  0.67163646     0.43900
N11         N  0.37646857  0.10700469  0.62335610    -0.33000
N12         N  0.36740288  0.11766865  0.64997874    -0.27300
C13         C  0.38327456  0.13626359  0.65991712    -0.03400
C14         C  0.40333969  0.13726793  0.63849712     0.08900
C15         C  0.39843158  0.11840336  0.61575430     0.02700
H16         H  0.38037200  0.14802340  0.68120834     0.10300
H17         H  0.40982880  0.11354073  0.59491955     0.09400
N18         N  0.30049172  0.09125538  0.68935576    -0.34500
N19         N  0.28751082  0.07286040  0.67468494    -0.26600
C20         C  0.26715438  0.06715380  0.69277036    -0.01900
C21         C  0.26747071  0.08269592  0.71996067     0.06700
C22         C  0.28878041  0.09772257  0.71710077     0.04800
H23         H  0.25334365  0.05259833  0.68672848     0.09900
H24         H  0.29546296  0.11209826  0.73405500     0.08800
N25         N  0.45741321  0.23989732  0.65157288    -0.34900
N26         N  0.49414095  0.19838997  0.65527228    -0.55500
N27         N  0.53483153  0.23612116  0.65559995    -0.34900
N28         N  0.49831044  0.27719024  0.64611965    -0.55500
C29         C  0.44235874  0.21928168  0.64667866     0.28700
C30         C  0.44457712  0.26066114  0.64072304     0.28700
C31         C  0.54828555  0.21423560  0.65209553     0.28600
C32         C  0.55048158  0.25585150  0.64860226     0.28600
C33         C  0.47289457  0.18514859  0.66219504     0.37300
C34         C  0.51378524  0.18294525  0.66302421     0.37300
C35         C  0.47837445  0.29326764  0.64859407     0.37300
C36         C  0.51923484  0.29142912  0.65193973     0.37300
C37         C  0.41968432  0.22701961  0.63271832    -0.20200
C38         C  0.42115479  0.25308850  0.62872785    -0.20200
C39         C  0.57278790  0.22018557  0.64299365    -0.20200
C40         C  0.57418242  0.24639531  0.64085977    -0.20200
C41         C  0.47906369  0.16120680  0.67437360    -0.21300
C42         C  0.50497300  0.15978017  0.67479734    -0.21300
C43         C  0.48665814  0.31780860  0.65576486    -0.21300
C44         C  0.51251048  0.31661667  0.65808979    -0.21300
C45         C  0.44805450  0.19382613  0.65570557    -0.16600
C46         C  0.45286684  0.28638798  0.64315256    -0.16600
C47         C  0.54437137  0.28220179  0.65037908    -0.16600
C48         C  0.53955003  0.18911668  0.65846174    -0.16600
H49         H  0.40374259  0.21510391  0.62597740     0.16300
H50         H  0.40652404  0.26507882  0.61830708     0.16300
H51         H  0.58817388  0.20702352  0.63850132     0.16300
H52         H  0.59081659  0.25724125  0.63433688     0.16300
H53         H  0.46626912  0.14626201  0.68203334     0.14600
H54         H  0.51603095  0.14356900  0.68300096     0.14600
H55         H  0.47526301  0.33478688  0.65923451     0.14600
H56         H  0.52487354  0.33252539  0.66376944     0.14600
H57         H  0.47416017  0.24012650  0.66487243     0.27800
H58         H  0.51695882  0.23766146  0.66554392     0.27800
N59         N  0.66107985  0.02688880  0.59235029    -0.25600
N60         N  0.63933186  0.03574381  0.58084249    -0.33500
C61         C  0.63326718  0.02296479  0.55343267     0.02700
C62         C  0.65205346  0.00528647  0.54741202     0.08700
C63         C  0.66939823  0.00822898  0.57244878    -0.04400
H64         H  0.61638668  0.02628429  0.53903268     0.09400
H65         H  0.68669600  0.99752054  0.57607073     0.10600
Cu66       Cu  0.61867472  0.06490901  0.60254819     0.44200
Cu67       Cu  0.67823316  0.04019609  0.63510468     0.42000
Cu68       Cu  0.64507251  0.09122777  0.67659502     0.43900
N69         N  0.60258356  0.09535791  0.62754877    -0.33000
N70         N  0.61245808  0.10516709  0.65441663    -0.27300
C71         C  0.59833162  0.12521528  0.66388739    -0.03400
C72         C  0.57855768  0.12816443  0.64190255     0.08900
C73         C  0.58182130  0.10884168  0.61930458     0.02700
H74         H  0.60234173  0.13678044  0.68511728     0.10300
H75         H  0.57022279  0.10516376  0.59803859     0.09400
N76         N  0.67808530  0.07458197  0.69430299    -0.34500
N77         N  0.69039598  0.05603779  0.67922823    -0.26600
C78         C  0.71093581  0.04968630  0.69710426    -0.01900
C79         C  0.71142944  0.06496182  0.72459624     0.06700
C80         C  0.69040119  0.08049159  0.72206226     0.04800
H81         H  0.72446511  0.03506664  0.69055753     0.09900
H82         H  0.68448058  0.09506813  0.73908384     0.08800
N83         N  0.28736725  0.40971421  0.68313240    -0.25600
N84         N  0.29617524  0.38836871  0.69625410    -0.33500
C85         C  0.28242737  0.38257684  0.72259662     0.02700
C86         C  0.26415809  0.40117229  0.72622224     0.08700
C87         C  0.26772456  0.41811320  0.70088298    -0.04400
H88         H  0.28572785  0.36621280  0.73815571     0.09400
H89         H  0.25701846  0.43532319  0.69584514     0.10600
Cu90       Cu  0.32728426  0.36872315  0.67886371     0.44200
Cu91       Cu  0.30304678  0.42620960  0.64191021     0.42000
Cu92       Cu  0.36036234  0.39578691  0.61068930     0.43900
N93         N  0.36040283  0.35358362  0.66043604    -0.33000
N94         N  0.37284984  0.36363915  0.63582111    -0.27300
C95         C  0.39367571  0.34951816  0.63030167    -0.03400
C96         C  0.39427137  0.32961336  0.65258165     0.08900
C97         C  0.37289176  0.33281359  0.67119668     0.02700
H98         H  0.40714030  0.35339992  0.61129370     0.10300
H99         H  0.36684047  0.32090460  0.69117487     0.09400
N100        N  0.34256558  0.42692696  0.58895712    -0.34500
N101        N  0.32181457  0.43789084  0.60019596    -0.26600
C102        C  0.31480636  0.45679679  0.57982323    -0.01900
C103        C  0.33192358  0.45767536  0.55471677     0.06700
C104        C  0.34927296  0.43858550  0.56116896     0.04800
H105        H  0.29826653  0.46872209  0.58284800     0.09900
H106        H  0.36534566  0.43326149  0.54652833     0.08800
N107        N  0.69708680  0.41454773  0.67090042    -0.25600
N108        N  0.68692085  0.39358778  0.68330446    -0.33500
C109        C  0.69902247  0.38766490  0.71114663     0.02700
C110        C  0.71758108  0.40571862  0.71651348     0.08700
C111        C  0.71595436  0.42249505  0.69065838    -0.04400
H112        H  0.69453832  0.37144598  0.72638210     0.09400
H113        H  0.72759140  0.43918032  0.68645414     0.10600
Cu114      Cu  0.65653961  0.37391641  0.66309867     0.44200
Cu115      Cu  0.68505283  0.43126691  0.62750161     0.42000
Cu116      Cu  0.63075347  0.40019851  0.58992471     0.43900
N117        N  0.62425898  0.35946588  0.64073457    -0.33000
N118        N  0.61452570  0.36953314  0.61399813    -0.27300
C119        C  0.59318206  0.35691246  0.60611406    -0.03400
C120        C  0.58929254  0.33790431  0.62888500     0.08900
C121        C  0.60941158  0.34006685  0.65055314     0.02700
H122        H  0.58127010  0.36134572  0.58538550     0.10300
H123        H  0.61286993  0.32876416  0.67213144     0.09400
N124        N  0.64999877  0.43062201  0.56925016    -0.34500
N125        N  0.66967849  0.44218485  0.58284400    -0.26600
C126        C  0.67749577  0.46108533  0.56303999    -0.01900
C127        C  0.66201576  0.46121713  0.53582566     0.06700
C128        C  0.64480689  0.44177565  0.54052423     0.04800
H129        H  0.69318308  0.47379295  0.56814922     0.09900
H130        H  0.62952012  0.43621001  0.52438937     0.08800
N131        N  0.28830768  0.91687411  0.33628484    -0.25600
N132        N  0.29846125  0.89557992  0.32476920    -0.33500
C133        C  0.28650815  0.88910898  0.29695774     0.02700
C134        C  0.26807290  0.90717796  0.29070255     0.08700
C135        C  0.26964421  0.92450714  0.31602632    -0.04400
H136        H  0.29097468  0.87249823  0.28236046     0.09400
H137        H  0.25807812  0.94135095  0.31955533     0.10600
Cu138      Cu  0.32862058  0.87637618  0.34660644     0.44200
Cu139      Cu  0.30013416  0.93438316  0.37925943     0.42000
Cu140      Cu  0.35452034  0.90495398  0.41914057     0.43900
N141        N  0.36047197  0.86214828  0.37056005    -0.33000
N142        N  0.37022622  0.87296392  0.39686584    -0.27300
C143        C  0.39109937  0.85996981  0.40590057    -0.03400
C144        C  0.39469765  0.83995769  0.38435508     0.08900
C145        C  0.37485203  0.84192046  0.36222455     0.02700
H146        H  0.40288278  0.86479340  0.42662254     0.10300
H147        H  0.37121621  0.82982546  0.34136700     0.09400
N148        N  0.33479918  0.93601752  0.43795362    -0.34500
N149        N  0.31503829  0.94678058  0.42351924    -0.26600
C150        C  0.30667917  0.96616950  0.44219893    -0.01900
C151        C  0.32189105  0.96753622  0.46957213     0.06700
C152        C  0.33950855  0.94825741  0.46615502     0.04800
H153        H  0.29077683  0.97835791  0.43622424     0.09900
H154        H  0.35468667  0.94349306  0.48285257     0.08800
N155        N  0.48480719  0.77639375  0.37307165    -0.34900
N156        N  0.52535468  0.73837968  0.36853247    -0.55500
N157        N  0.48779286  0.69746355  0.36616361    -0.34900
N158        N  0.44747723  0.73603165  0.36417896    -0.55500
C159        C  0.50527097  0.79178743  0.37044939     0.28700
C160        C  0.46413604  0.79069515  0.36580979     0.28700
C161        C  0.50887225  0.68413472  0.35831002     0.28600
C162        C  0.46762801  0.68270292  0.35833662     0.28600
C163        C  0.53914801  0.75899627  0.37786842     0.37300
C164        C  0.54075974  0.71779129  0.37150740     0.37300
C165        C  0.43160358  0.75615666  0.36792158     0.37300
C166        C  0.43312613  0.71468000  0.36662973     0.37300
C167        C  0.49752406  0.81620260  0.36172035    -0.20200
C168        C  0.47164698  0.81547059  0.35854488    -0.20200
C169        C  0.50194035  0.66056730  0.34547068    -0.20200
C170        C  0.47596086  0.65960047  0.34570128    -0.20200
C171        C  0.56333133  0.75138791  0.38682282    -0.21300
C172        C  0.56442461  0.72539222  0.38246322    -0.21300
C173        C  0.40709462  0.74752520  0.37230600    -0.21300
C174        C  0.40806769  0.72132396  0.37164468    -0.21300
C175        C  0.53069329  0.78475524  0.37673745    -0.16600
C176        C  0.43862483  0.78228420  0.36661156    -0.16600
C177        C  0.44188864  0.68925717  0.36277124    -0.16600
C178        C  0.53416710  0.69226853  0.36359757    -0.16600
H179        H  0.50931995  0.83281658  0.35773140     0.16300
H180        H  0.45977797  0.83144900  0.35159589     0.16300
H181        H  0.51425978  0.64557361  0.33672974     0.16300
H182        H  0.46451297  0.64378618  0.33707713     0.16300
H183        H  0.57869762  0.76326225  0.39556393     0.14600
H184        H  0.58071952  0.71341018  0.38726685     0.14600
H185        H  0.39023500  0.75888973  0.37587816     0.14600
H186        H  0.39205034  0.70864983  0.37442516     0.14600
H187        H  0.48485363  0.75792357  0.38257092     0.27800
H188        H  0.48714113  0.71460787  0.37907830     0.27800
N189        N  0.69934046  0.90578681  0.34356251    -0.25600
N190        N  0.68845856  0.88676410  0.32747405    -0.33500
C191        C  0.70188565  0.88168948  0.30058164     0.02700
C192        C  0.72215752  0.89829121  0.29970629     0.08700
C193        C  0.72006083  0.91332875  0.32725198    -0.04400
H194        H  0.69708131  0.86714131  0.28284666     0.09400
H195        H  0.73246947  0.92874914  0.33471622     0.10600
Cu196      Cu  0.65547642  0.86894020  0.34240583     0.44200
Cu197      Cu  0.68454292  0.92081405  0.38639624     0.42000
Cu198      Cu  0.62461676  0.89317078  0.41425049     0.43900
N199        N  0.62241141  0.85358889  0.36093104    -0.33000
N200        N  0.61087129  0.86233392  0.38708429    -0.27300
C201        C  0.59016596  0.84792652  0.39247705    -0.03400
C202        C  0.58871349  0.82925203  0.36847966     0.08900
C203        C  0.60946792  0.83346567  0.34905555     0.02700
H204        H  0.57739340  0.85070350  0.41256927     0.10300
H205        H  0.61487596  0.82256377  0.32784667     0.09400
N206        N  0.64328989  0.92347425  0.43724556    -0.34500
N207        N  0.66502971  0.93324661  0.42738165    -0.26600
C208        C  0.67193688  0.95223302  0.44778870    -0.01900
C209        C  0.65372136  0.95448661  0.47148456     0.06700
C210        C  0.63583879  0.93605277  0.46413278     0.04800
H211        H  0.68895567  0.96355179  0.44548839     0.09900
H212        H  0.61870576  0.93200598  0.47736715     0.08800
N213        N  0.32323042  0.52488928  0.42969001    -0.25600
N214        N  0.34420870  0.53512556  0.44171279    -0.33500
C215        C  0.35012313  0.52352464  0.46991234     0.02700
C216        C  0.33205815  0.50517046  0.47591478     0.08700
C217        C  0.31526414  0.50644016  0.45006939    -0.04400
H218        H  0.36632171  0.52824061  0.48497577     0.09400
H219        H  0.29847215  0.49494081  0.44639451     0.10600
Cu220      Cu  0.36386421  0.56493534  0.42041121     0.44200
Cu221      Cu  0.30607301  0.53698529  0.38652070     0.42000
Cu222      Cu  0.33536509  0.59233116  0.34907905     0.43900
N223        N  0.37889515  0.59620928  0.39643039    -0.33000
N224        N  0.36815851  0.60648440  0.37045475    -0.27300
C225        C  0.38193775  0.62670448  0.36088898    -0.03400
C226        C  0.40242502  0.62924268  0.38186342     0.08900
C227        C  0.39987105  0.60956820  0.40405957     0.02700
H228        H  0.37729110  0.63853261  0.34014625     0.10300
H229        H  0.41223997  0.60539309  0.42443426     0.09400
N230        N  0.30296442  0.57477989  0.33104861    -0.34500
N231        N  0.29227971  0.55448011  0.34440181    -0.26600
C232        C  0.27148639  0.54822602  0.32699022    -0.01900
C233        C  0.26908631  0.56545400  0.30167404     0.06700
C234        C  0.28929970  0.58197020  0.30489406     0.04800
H235        H  0.25893235  0.53251396  0.33258261     0.09900
H236        H  0.29366731  0.59816827  0.28956623     0.08800
N237        N  0.69389457  0.56979124  0.33264868    -0.25600
N238        N  0.68158503  0.58951425  0.31996869    -0.33500
C239        C  0.69328590  0.59685392  0.29255173     0.02700
C240        C  0.71385385  0.58102802  0.28785547     0.08700
C241        C  0.71373479  0.56410527  0.31361646    -0.04400
H242        H  0.68710722  0.61239429  0.27705283     0.09400
H243        H  0.72693125  0.54865705  0.31808185     0.10600
Cu244      Cu  0.64881713  0.60513459  0.33964346     0.44200
Cu245      Cu  0.68286702  0.55089329  0.37478642     0.42000
Cu246      Cu  0.62379291  0.57241345  0.40954256     0.43900
N247        N  0.61509524  0.61549908  0.36199626    -0.33000
N248        N  0.60572600  0.60308749  0.38716182    -0.27300
C249        C  0.58362194  0.61390236  0.39554431    -0.03400
C250        C  0.57885852  0.63424226  0.37490313     0.08900
C251        C  0.59924231  0.63468268  0.35385481     0.02700
H252        H  0.57200568  0.60762445  0.41553833     0.10300
H253        H  0.60235600  0.64783380  0.33400983     0.09400
N254        N  0.64544893  0.54283616  0.42880879    -0.34500
N255        N  0.66707648  0.53493780  0.41632337    -0.26600
C256        C  0.67635993  0.51579336  0.43483286    -0.01900
C257        C  0.65974439  0.51160302  0.46002790     0.06700
C258        C  0.64040768  0.52898287  0.45552438     0.04800
H259        H  0.69392499  0.50582698  0.43036539     0.09900
H260        H  0.62395958  0.53153093  0.47065608     0.08800
N261        N  0.99565265  0.69780499  0.10226608    -0.34900
N262        N  0.03461257  0.73716214  0.10410601    -0.55500
N263        N  0.99516485  0.77622402  0.09975604    -0.34900
N264        N  0.95627424  0.73690782  0.10364836    -0.55500
C265        C  0.01626883  0.68358016  0.10980942     0.28700
C266        C  0.97506107  0.68338389  0.10884609     0.28700
C267        C  0.01580341  0.79087297  0.10569783     0.28600
C268        C  0.97456725  0.79072180  0.10623627     0.28600
C269        C  0.04924226  0.71633968  0.09893414     0.37300
C270        C  0.04893342  0.75776941  0.09681554     0.37300
C271        C  0.94199481  0.71603210  0.09715502     0.37300
C272        C  0.94167031  0.75748675  0.09681672     0.37300
C273        C  0.00865935  0.65982371  0.12116716    -0.20200
C274        C  0.98268022  0.65969382  0.12053025    -0.20200
C275        C  0.00823272  0.81500363  0.11580739    -0.20200
C276        C  0.98224465  0.81489465  0.11620815    -0.20200
C277        C  0.07294145  0.72373736  0.08835785    -0.21300
C278        C  0.07273436  0.74999044  0.08695147    -0.21300
C279        C  0.91828536  0.72339778  0.08603803    -0.21300
C280        C  0.91805999  0.74966164  0.08591459    -0.21300
C281        C  0.04172989  0.69081755  0.10491132    -0.16600
C282        C  0.94963864  0.69048033  0.10293463    -0.16600
C283        C  0.94905687  0.78322012  0.10171890    -0.16600
C284        C  0.04123108  0.78351640  0.10071093    -0.16600
H285        H  0.02058034  0.64410272  0.12892605     0.16300
H286        H  0.97076884  0.64387095  0.12772509     0.16300
H287        H  0.02018823  0.83108195  0.12219160     0.16300
H288        H  0.97037223  0.83088986  0.12293399     0.16300
H289        H  0.08870380  0.71152586  0.08212765     0.14600
H290        H  0.08834424  0.76194397  0.07947898     0.14600
H291        H  0.90274123  0.71116915  0.07872485     0.14600
H292        H  0.90234526  0.76159770  0.07844571     0.14600
H293        H  0.99563181  0.71510628  0.08988877     0.27800
H294        H  0.99513941  0.75842040  0.08854135     0.27800
N295        N  0.16984982  0.93786608  0.07900373    -0.25600
N296        N  0.15153366  0.92495539  0.06427798    -0.33500
C297        C  0.14467532  0.93736507  0.03695214     0.02700
C298        C  0.15935392  0.95909030  0.03441897     0.08700
C299        C  0.17510387  0.95890544  0.06137954    -0.04400
H300        H  0.12993273  0.93113173  0.02037900     0.09400
H301        H  0.18918610  0.97307564  0.06785803     0.10600
Cu302      Cu  0.13598900  0.89154621  0.08252656     0.44200
Cu303      Cu  0.18631642  0.92634800  0.12284914     0.42000
Cu304      Cu  0.16052262  0.86838770  0.15926177     0.43900
N305        N  0.12206364  0.85950055  0.10605629    -0.33000
N306        N  0.13115215  0.85080101  0.13394566    -0.27300
C307        C  0.11790940  0.82994572  0.14267250    -0.03400
C308        C  0.09948566  0.82546437  0.11933004     0.08900
C309        C  0.10271195  0.84455865  0.09640510     0.02700
H310        H  0.12122034  0.81904856  0.16463884     0.10300
H311        H  0.09191774  0.84745008  0.07429015     0.09400
N312        N  0.18926141  0.89011630  0.18018106    -0.34500
N313        N  0.19875450  0.91110696  0.16702145    -0.26600
C314        C  0.21701742  0.92038772  0.18678570    -0.01900
C315        C  0.21895808  0.90449809  0.21351779     0.06700
C316        C  0.20117604  0.88553852  0.20860179     0.04800
H317        H  0.22805446  0.93738565  0.18198897     0.09900
H318        H  0.19721435  0.86953115  0.22442893     0.08800
N319        N  0.19349652  0.56098876  0.18516618    -0.25600
N320        N  0.18578964  0.58353655  0.19601121    -0.33500
C321        C  0.19857308  0.58919284  0.22355292     0.02700
C322        C  0.21496418  0.56925350  0.23025168     0.08700
C323        C  0.21130510  0.55173463  0.20553740    -0.04400
H324        H  0.19635182  0.60668077  0.23735231     0.09400
H325        H  0.22119591  0.53380422  0.20220963     0.10600
Cu326      Cu  0.15843792  0.60585882  0.17274532     0.44200
Cu327      Cu  0.18054374  0.54396737  0.14238712     0.42000
Cu328      Cu  0.12944038  0.57650429  0.10195303     0.43900
N329        N  0.12916409  0.62266039  0.14608318    -0.33000
N330        N  0.11825465  0.61142361  0.12082142    -0.27300
C331        C  0.09963591  0.62650488  0.10939286    -0.03400
C332        C  0.09873801  0.64843190  0.12831057     0.08900
C333        C  0.11777728  0.64535804  0.15126897     0.02700
H334        H  0.08778824  0.62174475  0.08873126     0.10300
H335        H  0.12276042  0.65851562  0.17060268     0.09400
N336        N  0.14593732  0.54352999  0.08395037    -0.34500
N337        N  0.16495684  0.53160847  0.09847636    -0.26600
C338        C  0.17194533  0.51152311  0.08003192    -0.01900
C339        C  0.15652648  0.51093334  0.05276408     0.06700
C340        C  0.14027374  0.53140788  0.05597382     0.04800
H341        H  0.18716807  0.49846517  0.08595673     0.09900
H342        H  0.12557688  0.53724550  0.03911873     0.08800
N343        N  0.82136461  0.93981079  0.09507609    -0.25600
N344        N  0.83946578  0.92763634  0.07930840    -0.33500
C345        C  0.84440699  0.94015523  0.05153798     0.02700
C346        C  0.82867999  0.96115169  0.04978799     0.08700
C347        C  0.81430251  0.96047036  0.07766365    -0.04400
H348        H  0.85824024  0.93422130  0.03382242     0.09400
H349        H  0.79965019  0.97379632  0.08463360     0.10600
Cu350      Cu  0.85618581  0.89407913  0.09536526     0.44200
Cu351      Cu  0.80667843  0.92709208  0.13901522     0.42000
Cu352      Cu  0.83036939  0.86531216  0.16740274     0.43900
N353        N  0.86919757  0.85985574  0.11450950    -0.33000
N354        N  0.85947701  0.84891451  0.14052502    -0.27300
C355        C  0.87204748  0.82697191  0.14647959    -0.03400
C356        C  0.89067413  0.82410879  0.12329088     0.08900
C357        C  0.88825113  0.84532872  0.10334470     0.02700
H358        H  0.86823307  0.81426018  0.16659094     0.10300
H359        H  0.89944632  0.85000719  0.08229348     0.09400
N360        N  0.80281477  0.88662359  0.19134115    -0.34500
N361        N  0.79442665  0.90916758  0.18126650    -0.26600
C362        C  0.77674487  0.91764397  0.20208295    -0.01900
C363        C  0.77394500  0.89960076  0.22630713     0.06700
C364        C  0.79065503  0.88019589  0.21879258     0.04800
H365        H  0.76645672  0.93543427  0.19947518     0.09900
H366        H  0.79358796  0.86256816  0.23207391     0.08800
N367        N  0.78419884  0.57365952  0.16711102    -0.25600
N368        N  0.79444058  0.59472037  0.17935692    -0.33500
C369        C  0.78231337  0.60103019  0.20688659     0.02700
C370        C  0.76360229  0.58311205  0.21213326     0.08700
C371        C  0.76526754  0.56603970  0.18656754    -0.04400
H372        H  0.78690924  0.61735400  0.22202222     0.09400
H373        H  0.75369983  0.54924616  0.18247675     0.10600
Cu374      Cu  0.82496100  0.61359130  0.15871887     0.44200
Cu375      Cu  0.79685838  0.55585102  0.12486339     0.42000
Cu376      Cu  0.85371344  0.58256252  0.08972807     0.43900
N377        N  0.85694460  0.62741091  0.13554376    -0.33000
N378        N  0.86776385  0.61570048  0.11078628    -0.27300
C379        C  0.88832327  0.62901256  0.10183697    -0.03400
C380        C  0.89051737  0.65019753  0.12194686     0.08900
C381        C  0.87027532  0.64859535  0.14289995     0.02700
H382        H  0.90050330  0.62370295  0.08195101     0.10300
H383        H  0.86564060  0.66181366  0.16221630     0.09400
N384        N  0.83517233  0.55079526  0.07112803    -0.34500
N385        N  0.81426218  0.54110180  0.08356951    -0.26600
C386        C  0.80712104  0.52071662  0.06562672    -0.01900
C387        C  0.82440842  0.51758020  0.04092808     0.06700
C388        C  0.84189902  0.53689269  0.04505710     0.04800
H389        H  0.79069357  0.50900098  0.07035555     0.09900
H390        H  0.85834352  0.54057178  0.03030291     0.08800
N391        N  0.98798078  0.19792701  0.91122403    -0.34900
N392        N  0.94905055  0.23709847  0.90715480    -0.55500
N393        N  0.98864756  0.27639536  0.91125803    -0.34900
N394        N  0.02754203  0.23728568  0.90907527    -0.55500
C395        C  0.96735995  0.18326012  0.90519927     0.28700
C396        C  0.00857723  0.18334349  0.90533560     0.28700
C397        C  0.96813204  0.29093187  0.90443186     0.28600
C398        C  0.00933371  0.29100450  0.90584596     0.28600
C399        C  0.93426206  0.21650250  0.91307603     0.37300
C400        C  0.93464077  0.25799157  0.91283289     0.37300
C401        C  0.04198907  0.21639440  0.91469575     0.37300
C402        C  0.04232899  0.25786155  0.91536662     0.37300
C403        C  0.97496804  0.15899510  0.89569966    -0.20200
C404        C  0.00093339  0.15905673  0.89572155    -0.20200
C405        C  0.97587985  0.31509177  0.89467756    -0.20200
C406        C  0.00184720  0.31514333  0.89560441    -0.20200
C407        C  0.91035530  0.22435771  0.92230482    -0.21300
C408        C  0.91059253  0.25061101  0.92216031    -0.21300
C409        C  0.06607690  0.22373826  0.92441236    -0.21300
C410        C  0.06627288  0.24999060  0.92491681    -0.21300
C411        C  0.94187169  0.19069719  0.90942233    -0.16600
C412        C  0.03408198  0.19078155  0.90991529    -0.16600
C413        C  0.03474650  0.28363834  0.91131918    -0.16600
C414        C  0.94261416  0.28364459  0.90869396    -0.16600
H415        H  0.96305323  0.14286604  0.88939612     0.16300
H416        H  0.01282128  0.14294711  0.88948371     0.16300
H417        H  0.96404532  0.33112795  0.88780012     0.16300
H418        H  0.01383978  0.33119630  0.88951045     0.16300
H419        H  0.89444475  0.21247244  0.92885517     0.14600
H420        H  0.89487503  0.26281955  0.92856441     0.14600
H421        H  0.08185620  0.21148847  0.93072974     0.14600
H422        H  0.08222786  0.26185388  0.93170399     0.14600
H423        H  0.98804091  0.21593464  0.92215744     0.27800
H424        H  0.98842907  0.25857258  0.92261930     0.27800
N425        N  0.16349029  0.43939173  0.93146895    -0.25600
N426        N  0.14500073  0.42711168  0.94633019    -0.33500
C427        C  0.13984295  0.43912158  0.97446046     0.02700
C428        C  0.15582869  0.45987415  0.97738644     0.08700
C429        C  0.17055989  0.45958072  0.94981100    -0.04400
H430        H  0.12561251  0.43307145  0.99156479     0.09400
H431        H  0.18541724  0.47290254  0.94361547     0.10600
Cu432      Cu  0.12785659  0.39421229  0.92832155     0.44200
Cu433      Cu  0.17876856  0.42763380  0.88736074     0.42000
Cu434      Cu  0.15493238  0.36737544  0.85554146     0.43900
N435        N  0.11465595  0.36095304  0.90633043    -0.33000
N436        N  0.12491951  0.35086098  0.88007921    -0.27300
C437        C  0.11222616  0.32943699  0.87199864    -0.03400
C438        C  0.09293465  0.32594474  0.89402789     0.08900
C439        C  0.09505910  0.34629614  0.91554478     0.02700
H440        H  0.11650191  0.31746367  0.85128712     0.10300
H441        H  0.08333948  0.35025070  0.93637071     0.09400
N442        N  0.18319363  0.38858059  0.83344883    -0.34500
N443        N  0.19174886  0.41070481  0.84473942    -0.26600
C444        C  0.20990376  0.41938250  0.82477306    -0.01900
C445        C  0.21277407  0.40187520  0.79987889     0.06700
C446        C  0.19565106  0.38260251  0.80607675     0.04800
H447        H  0.22038382  0.43696062  0.82833802     0.09900
H448        H  0.19256760  0.36540740  0.79190895     0.08800
N449        N  0.16495285  0.03737477  0.92039110    -0.25600
N450        N  0.14492957  0.04756892  0.93449428    -0.33500
C451        C  0.13880755  0.03342709  0.96061232     0.02700
C452        C  0.15579589  0.01344526  0.96298697     0.08700
C453        C  0.17210227  0.01645086  0.93720807    -0.04400
H454        H  0.12337559  0.03762473  0.97688047     0.09400
H455        H  0.18817386  0.00454870  0.93133983     0.10600
Cu456      Cu  0.12741900  0.08075069  0.91822623     0.44200
Cu457      Cu  0.18206768  0.05289957  0.87942390     0.42000
Cu458      Cu  0.15587524  0.11234527  0.84892259     0.43900
N459        N  0.11383863  0.11440538  0.89788872    -0.33000
N460        N  0.12427406  0.12598429  0.87278563    -0.27300
C461        C  0.11105985  0.14730117  0.86584467    -0.03400
C462        C  0.09139241  0.14924763  0.88758510     0.08900
C463        C  0.09370716  0.12804429  0.90759020     0.02700
H464        H  0.11548597  0.16045179  0.84640825     0.10300
H465        H  0.08185541  0.12286670  0.92783611     0.09400
N466        N  0.18638347  0.09392691  0.82798005    -0.34500
N467        N  0.19590241  0.07211845  0.83890467    -0.26600
C468        C  0.21499197  0.06491768  0.81944329    -0.01900
C469        C  0.21748381  0.08307128  0.79528961     0.06700
C470        C  0.19913245  0.10118527  0.80135517     0.04800
H471        H  0.22603900  0.04764536  0.82249725     0.09900
H472        H  0.19511039  0.11821318  0.78729020     0.08800
N473        N  0.81686570  0.03280229  0.92957492    -0.25600
N474        N  0.83481694  0.04610781  0.94449035    -0.33500
C475        C  0.84110078  0.03433546  0.97246493     0.02700
C476        C  0.82639098  0.01267440  0.97524007     0.08700
C477        C  0.81125149  0.01217035  0.94775042    -0.04400
H478        H  0.85521410  0.04116281  0.98955765     0.09400
H479        H  0.79708873  0.99801555  0.94151498     0.10600
Cu480      Cu  0.84984711  0.07989577  0.92671679     0.44200
Cu481      Cu  0.80034114  0.04380442  0.88565069     0.42000
Cu482      Cu  0.82158296  0.10502167  0.85342573     0.43900
N483        N  0.86220567  0.11308452  0.90433575    -0.33000
N484        N  0.85178369  0.12253275  0.87762854    -0.27300
C485        C  0.86439854  0.14386611  0.86910817    -0.03400
C486        C  0.88374056  0.14794610  0.89139038     0.08900
C487        C  0.88171690  0.12803915  0.91345904     0.02700
H488        H  0.86005420  0.15537316  0.84794900     0.10300
H489        H  0.89351785  0.12451030  0.93455284     0.09400
N490        N  0.79322877  0.08275459  0.83201658    -0.34500
N491        N  0.78580074  0.06029780  0.84338229    -0.26600
C492        C  0.76758880  0.05082263  0.82368660    -0.01900
C493        C  0.76340226  0.06814839  0.79886955     0.06700
C494        C  0.77987971  0.08815180  0.80486640     0.04800
H495        H  0.75803432  0.03274795  0.82730415     0.09900
H496        H  0.78203641  0.10537192  0.79057101     0.08800
N497        N  0.78755409  0.41220809  0.83901024    -0.25600
N498        N  0.79592573  0.39014924  0.82751393    -0.33500
C499        C  0.78346863  0.38458966  0.79977790     0.02700
C500        C  0.76653272  0.40409409  0.79361331     0.08700
C501        C  0.76949541  0.42128590  0.81886709    -0.04400
H502        H  0.78660499  0.36766257  0.78517728     0.09400
H503        H  0.75936859  0.43906129  0.82234870     0.10600
Cu504      Cu  0.82420217  0.36885642  0.84970363     0.44200
Cu505      Cu  0.80126450  0.42880668  0.88152428     0.42000
Cu506      Cu  0.84990162  0.39376263  0.92549952     0.43900
N507        N  0.85354681  0.35176567  0.87524716    -0.33000
N508        N  0.86304818  0.36088091  0.90272980    -0.27300
C509        C  0.88231010  0.34581920  0.91237332    -0.03400
C510        C  0.88501189  0.32628907  0.88982659     0.08900
C511        C  0.86641599  0.33062351  0.86675592     0.02700
H512        H  0.89343671  0.34896739  0.93416585     0.10300
H513        H  0.86271856  0.31942624  0.84510163     0.09400
N514        N  0.83450263  0.42807109  0.94159760    -0.34500
N515        N  0.81703754  0.44098518  0.92526826    -0.26600
C516        C  0.81118143  0.46232795  0.94193360    -0.01900
C517        C  0.82557812  0.46275514  0.97002252     0.06700
C518        C  0.84016572  0.44084639  0.96915118     0.04800
H519        H  0.79731405  0.47634255  0.93426641     0.09900
H520        H  0.85379819  0.43458361  0.98719406     0.08800
C521        C  0.05405761  0.30438851  0.91315376    -0.14800
C522        C  0.07428572  0.30484851  0.89359886    -0.29900
H523        H  0.05033704  0.32044714  0.92918263     0.14300
H524        H  0.07693210  0.28949707  0.87611213     0.14800
C525        C  0.05340344  0.17014495  0.90995730    -0.14800
C526        C  0.07255916  0.17004731  0.88875660    -0.27500
H527        H  0.05058772  0.15403920  0.92616113     0.14300
H528        H  0.07433753  0.18566338  0.87149552     0.14800
C529        C  0.92255278  0.16992915  0.91095798    -0.14800
C530        C  0.90240624  0.16908734  0.89082393    -0.29900
H531        H  0.92618166  0.15416351  0.92750363     0.14300
H532        H  0.89981277  0.18413536  0.87290157     0.14800
C533        C  0.92352426  0.30451983  0.90984814    -0.14800
C534        C  0.90355244  0.30517207  0.88954683    -0.29900
H535        H  0.92715010  0.32044626  0.92619661     0.14300
H536        H  0.90104356  0.29000559  0.87171445     0.14800
C537        C  0.82505804  0.48187952  0.99523335    -0.11600
C538        C  0.82454928  0.49805925  0.01619821    -0.13200
C539        C  0.82730134  0.97950028  0.02377783    -0.11600
C540        C  0.82665492  0.99460588  0.00161334    -0.13200
C541        C  0.15715234  0.49288078  0.02628371    -0.11600
C542        C  0.15690906  0.47789427  0.00390082    -0.13200
C543        C  0.15809807  0.97818503  0.00918116    -0.11600
C544        C  0.15697713  0.99418257  0.98802039    -0.13200
C545        C  0.06054880  0.80419819  0.09941143    -0.14800
C546        C  0.08065481  0.80458280  0.11957320    -0.29900
H547        H  0.05700526  0.82020323  0.08320091     0.14300
H548        H  0.08302478  0.78939099  0.13735415     0.14800
C549        C  0.92943392  0.80373381  0.10168510    -0.14800
C550        C  0.90929173  0.80300369  0.12144531    -0.29900
H551        H  0.93289430  0.82062161  0.08703631     0.14300
H552        H  0.90687804  0.78679198  0.13764556     0.14800
C553        C  0.06102847  0.67006107  0.10532137    -0.14800
C554        C  0.08105400  0.67031505  0.12565964    -0.29900
H555        H  0.05713089  0.65319409  0.09070778     0.14300
H556        H  0.08396113  0.68659665  0.14170971     0.14800
C557        C  0.93031108  0.66975470  0.10264809    -0.14800
C558        C  0.90970882  0.67072623  0.12151362    -0.29900
H559        H  0.93409560  0.65280964  0.08819002     0.14300
H560        H  0.90696126  0.68705724  0.13748091     0.14800
C561        C  0.73145020  0.58170402  0.26124440    -0.11600
C562        C  0.74612582  0.58230478  0.23886705    -0.13200
C563        C  0.23336710  0.56773940  0.25622759    -0.11600
C564        C  0.24939798  0.56647553  0.27726472    -0.13200
C565        C  0.74103999  0.89979534  0.27463619    -0.11600
C566        C  0.75627369  0.90013867  0.25286332    -0.13200
C567        C  0.54924734  0.80590560  0.38220767    -0.14800
C568        C  0.57005949  0.80840759  0.36396448    -0.29900
H569        H  0.54470741  0.82040681  0.40015658     0.14300
H570        H  0.57352872  0.79461813  0.34471418     0.14800
C571        C  0.42250004  0.66864659  0.36098688    -0.14800
C572        C  0.42272671  0.64869877  0.38157830    -0.29900
H573        H  0.40679307  0.67120794  0.34419378     0.14300
H574        H  0.43789010  0.64703763  0.39941841     0.14800
C575        C  0.55674915  0.65164122  0.37641587    -0.14800
C576        C  0.55535851  0.67362744  0.35951530    -0.29900
H577        H  0.54163316  0.64678007  0.39303629     0.14300
H578        H  0.57117951  0.67942750  0.34457421     0.14800
C579        C  0.25068703  0.90749333  0.26353663    -0.11600
C580        C  0.23624177  0.90671184  0.24065007    -0.13200
C581        C  0.41578662  0.82124192  0.38537751    -0.14800
C582        C  0.41777542  0.80158059  0.36437937    -0.29900
H583        H  0.43003199  0.82354278  0.40431742     0.14300
H584        H  0.40296833  0.79836401  0.34643270     0.14800
C585        C  0.73502090  0.40648786  0.74349885    -0.11600
C586        C  0.74938859  0.40594103  0.76640928    -0.13200
C587        C  0.66207338  0.49339529  0.48615825    -0.11600
C588        C  0.66275057  0.47861721  0.50870889    -0.13200
C589        C  0.24569568  0.40263931  0.75171846    -0.11600
C590        C  0.23058756  0.40282734  0.77358672    -0.13200
C591        C  0.33118516  0.48831062  0.50353018    -0.11600
C592        C  0.33130076  0.47436961  0.52691148    -0.13200
C593        C  0.73004661  0.06510755  0.75047585    -0.11600
C594        C  0.74532498  0.06610646  0.77249220    -0.13200
C595        C  0.65303721  0.98730968  0.52075987    -0.11600
C596        C  0.65344846  0.97233051  0.49831584    -0.13200
C597        C  0.41291690  0.30874027  0.65618520    -0.14800
C598        C  0.43419850  0.30747676  0.63865485    -0.29900
H599        H  0.40910139  0.29397212  0.67406937     0.14300
H600        H  0.43893065  0.32286102  0.62207125     0.14800
C601        C  0.55887412  0.16845375  0.66098786    -0.14800
C602        C  0.55844315  0.14785285  0.64137572    -0.29900
H603        H  0.57477909  0.17153048  0.67734597     0.14300
H604        H  0.54328819  0.14584463  0.62357884     0.14800
C605        C  0.56582540  0.30074647  0.65097191    -0.14800
C606        C  0.56765255  0.31996554  0.62942218    -0.29900
H607        H  0.58118724  0.29719972  0.66801524     0.14300
H608        H  0.55289978  0.32241230  0.61117022     0.14800
C609        C  0.24975167  0.08272580  0.74638293    -0.11600
C610        C  0.23506513  0.08283515  0.76872092    -0.13200
C611        C  0.32031179  0.00107086  0.51781928    -0.11600
C612        C  0.32038201  0.98574680  0.49581174    -0.13200
C613        C  0.42537525  0.15461425  0.63876509    -0.14800
C614        C  0.42661122  0.17550705  0.65773887    -0.29900
H615        H  0.44064478  0.15065390  0.62197383     0.14300
H616        H  0.41067338  0.18072682  0.67283113     0.14800
loop_ 
_geom_bond_atom_site_label_1 
_geom_bond_atom_site_label_2 
_geom_bond_distance 
_geom_bond_site_symmetry_2 
_ccdc_geom_bond_type 
N1            N2   1.324       .  A
N1            C5   1.348       .  A
N1           Cu9   2.085       .  S
N2            C3   1.345       .  A
N2           Cu8   2.073       .  S
C3            C4   1.379       .  A
C3            H6   1.082       .  S
C4            C5   1.382       .  A
C4          C611   1.441       .  S
C5            H7   1.082       .  S
Cu8          N11   2.073       .  S
Cu9          N19   2.085       .  S
Cu10         N12   2.075       .  S
Cu10         N18   2.075       .  S
N11          N12   1.322       .  A
N11          C15   1.345       .  A
N12          C13   1.345       .  A
C13          C14   1.386       .  A
C13          H16   1.081       .  S
C14          C15   1.382       .  A
C14         C613   1.477       .  S
C15          H17   1.082       .  S
N18          N19   1.324       .  A
N18          C22   1.346       .  A
N19          C20   1.347       .  A
C20          C21   1.382       .  A
C20          H23   1.082       .  S
C21          C22   1.380       .  A
C21         C609   1.441       .  S
C22          H24   1.082       .  S
N25          C30   1.354       .  A
N25          C29   1.353       .  A
N25          H57   1.038       .  S
N26          C33   1.352       .  A
N26          C34   1.352       .  A
N27          C32   1.355       .  A
N27          C31   1.355       .  A
N27          H58   1.036       .  S
N28          C35   1.353       .  A
N28          C36   1.353       .  A
C29          C37   1.386       .  A
C29          C45   1.413       .  A
C30          C46   1.417       .  A
C30          C38   1.388       .  A
C31          C39   1.387       .  A
C31          C48   1.417       .  A
C32          C47   1.416       .  A
C32          C40   1.387       .  A
C33          C45   1.414       .  A
C33          C41   1.386       .  A
C34          C48   1.415       .  A
C34          C42   1.386       .  A
C35          C43   1.386       .  A
C35          C46   1.413       .  A
C36          C44   1.387       .  A
C36          C47   1.416       .  A
C37          C38   1.374       .  A
C37          H49   1.082       .  S
C38          H50   1.082       .  S
C39          C40   1.374       .  A
C39          H51   1.082       .  S
C40          H52   1.082       .  S
C41          C42   1.373       .  A
C41          H53   1.082       .  S
C42          H54   1.082       .  S
C43          C44   1.372       .  A
C43          H55   1.082       .  S
C44          H56   1.082       .  S
C45         C614   1.487       .  S
C46         C598   1.490       .  S
C47         C605   1.492       .  S
C48         C601   1.490       .  S
N59          N60   1.324       .  A
N59          C63   1.348       .  A
N59         Cu67   2.092       .  S
N60          C61   1.347       .  A
N60         Cu66   2.080       .  S
C61          C62   1.380       .  A
C61          H64   1.082       .  S
C62          C63   1.383       .  A
C62         C595   1.444   1_545  S
C63          H65   1.082   1_545  S
Cu66         N69   2.079       .  S
Cu67         N77   2.092       .  S
Cu68         N70   2.078       .  S
Cu68         N76   2.078       .  S
N69          N70   1.322       .  A
N69          C73   1.346       .  A
N70          C71   1.346       .  A
C71          C72   1.387       .  A
C71          H74   1.081       .  S
C72          C73   1.383       .  A
C72         C602   1.480       .  S
C73          H75   1.082       .  S
N76          N77   1.324       .  A
N76          C80   1.346       .  A
N77          C78   1.349       .  A
C78          C79   1.384       .  A
C78          H81   1.082       .  S
C79          C80   1.380       .  A
C79         C593   1.445       .  S
C80          H82   1.082       .  S
N83          N84   1.323       .  A
N83          C87   1.348       .  A
N83         Cu91   2.082       .  S
N84          C85   1.345       .  A
N84         Cu90   2.071       .  S
C85          C86   1.379       .  A
C85          H88   1.082       .  S
C86          C87   1.383       .  A
C86         C589   1.441       .  S
C87          H89   1.082       .  S
Cu90         N93   2.071       .  S
Cu91        N101   2.082       .  S
Cu92         N94   2.078       .  S
Cu92        N100   2.079       .  S
N93          N94   1.322       .  A
N93          C97   1.344       .  A
N94          C95   1.346       .  A
C95          C96   1.387       .  A
C95          H98   1.081       .  S
C96          C97   1.381       .  A
C96         C597   1.477       .  S
C97          H99   1.082       .  S
N100        N101   1.324       .  A
N100        C104   1.346       .  A
N101        C102   1.346       .  A
C102        C103   1.380       .  A
C102        H105   1.082       .  S
C103        C104   1.380       .  A
C103        C592   1.440       .  S
C104        H106   1.082       .  S
N107        N108   1.325       .  A
N107        C111   1.348       .  A
N107       Cu115   2.084       .  S
N108        C109   1.345       .  A
N108       Cu114   2.076       .  S
C109        C110   1.378       .  A
C109        H112   1.082       .  S
C110        C111   1.381       .  A
C110        C585   1.439       .  S
C111        H113   1.082       .  S
Cu114       N117   2.075       .  S
Cu115       N125   2.084       .  S
Cu116       N118   2.074       .  S
Cu116       N124   2.074       .  S
N117        N118   1.321       .  A
N117        C121   1.347       .  A
N118        C119   1.345       .  A
C119        C120   1.383       .  A
C119        H122   1.082       .  S
C120        C121   1.388       .  A
C120        C606   1.480       .  S
C121        H123   1.081       .  S
N124        N125   1.324       .  A
N124        C128   1.345       .  A
N125        C126   1.348       .  A
C126        C127   1.382       .  A
C126        H129   1.082       .  S
C127        C128   1.379       .  A
C127        C588   1.441       .  S
C128        H130   1.082       .  S
N131        N132   1.324       .  A
N131        C135   1.348       .  A
N131       Cu139   2.082       .  S
N132        C133   1.346       .  A
N132       Cu138   2.083       .  S
C133        C134   1.380       .  A
C133        H136   1.082       .  S
C134        C135   1.382       .  A
C134        C579   1.442       .  S
C135        H137   1.082       .  S
Cu138       N141   2.083       .  S
Cu139       N149   2.082       .  S
Cu140       N142   2.081       .  S
Cu140       N148   2.081       .  S
N141        N142   1.322       .  A
N141        C145   1.348       .  A
N142        C143   1.346       .  A
C143        C144   1.384       .  A
C143        H146   1.082       .  S
C144        C145   1.388       .  A
C144        C581   1.484       .  S
C145        H147   1.081       .  S
N148        N149   1.324       .  A
N148        C152   1.346       .  A
N149        C150   1.348       .  A
C150        C151   1.381       .  A
C150        H153   1.082       .  S
C151        C152   1.380       .  A
C151        C612   1.441       .  S
C152        H154   1.082       .  S
N155        C160   1.356       .  A
N155        C159   1.354       .  A
N155        H187   1.041       .  S
N156        C163   1.355       .  A
N156        C164   1.354       .  A
N157        C162   1.353       .  A
N157        C161   1.356       .  A
N157        H188   1.042       .  S
N158        C165   1.355       .  A
N158        C166   1.354       .  A
C159        C167   1.387       .  A
C159        C175   1.416       .  A
C160        C176   1.420       .  A
C160        C168   1.388       .  A
C161        C169   1.387       .  A
C161        C178   1.419       .  A
C162        C177   1.417       .  A
C162        C170   1.387       .  A
C163        C175   1.419       .  A
C163        C171   1.387       .  A
C164        C178   1.415       .  A
C164        C172   1.385       .  A
C165        C173   1.386       .  A
C165        C176   1.416       .  A
C166        C174   1.387       .  A
C166        C177   1.416       .  A
C167        C168   1.375       .  A
C167        H179   1.082       .  S
C168        H180   1.082       .  S
C169        C170   1.375       .  A
C169        H181   1.082       .  S
C170        H182   1.082       .  S
C171        C172   1.371       .  A
C171        H183   1.082       .  S
C172        H184   1.082       .  S
C173        C174   1.370       .  A
C173        H185   1.082       .  S
C174        H186   1.082       .  S
C175        C567   1.494       .  S
C176        C582   1.497       .  S
C177        C571   1.488       .  S
C178        C576   1.495       .  S
N189        N190   1.323       .  A
N189        C193   1.349       .  A
N189       Cu197   2.087       .  S
N190        C191   1.346       .  A
N190       Cu196   2.075       .  S
C191        C192   1.380       .  A
C191        H194   1.082       .  S
C192        C193   1.384       .  A
C192        C565   1.444       .  S
C193        H195   1.082       .  S
Cu196       N199   2.075       .  S
Cu197       N207   2.087       .  S
Cu198       N200   2.087       .  S
Cu198       N206   2.088       .  S
N199        N200   1.322       .  A
N199        C203   1.344       .  A
N200        C201   1.349       .  A
C201        C202   1.389       .  A
C201        H204   1.082       .  S
C202        C203   1.381       .  A
C202        C568   1.480       .  S
C203        H205   1.082       .  S
N206        N207   1.325       .  A
N206        C210   1.348       .  A
N207        C208   1.348       .  A
C208        C209   1.381       .  A
C208        H211   1.082       .  S
C209        C210   1.382       .  A
C209        C596   1.444       .  S
C210        H212   1.082       .  S
N213        N214   1.324       .  A
N213        C217   1.348       .  A
N213       Cu221   2.087       .  S
N214        C215   1.345       .  A
N214       Cu220   2.072       .  S
C215        C216   1.378       .  A
C215        H218   1.082       .  S
C216        C217   1.382       .  A
C216        C591   1.440       .  S
C217        H219   1.082       .  S
Cu220       N223   2.072       .  S
Cu221       N231   2.087       .  S
Cu222       N224   2.075       .  S
Cu222       N230   2.076       .  S
N223        N224   1.321       .  A
N223        C227   1.346       .  A
N224        C225   1.344       .  A
C225        C226   1.387       .  A
C225        H228   1.081       .  S
C226        C227   1.383       .  A
C226        C572   1.479       .  S
C227        H229   1.082       .  S
N230        N231   1.324       .  A
N230        C234   1.346       .  A
N231        C232   1.348       .  A
C232        C233   1.383       .  A
C232        H235   1.082       .  S
C233        C234   1.380       .  A
C233        C564   1.443       .  S
C234        H236   1.082       .  S
N237        N238   1.324       .  A
N237        C241   1.347       .  A
N237       Cu245   2.084       .  S
N238        C239   1.347       .  A
N238       Cu244   2.085       .  S
C239        C240   1.381       .  A
C239        H242   1.082       .  S
C240        C241   1.381       .  A
C240        C561   1.443       .  S
C241        H243   1.082       .  S
Cu244       N247   2.085       .  S
Cu245       N255   2.083       .  S
Cu246       N248   2.078       .  S
Cu246       N254   2.078       .  S
N247        N248   1.322       .  A
N247        C251   1.348       .  A
N248        C249   1.346       .  A
C249        C250   1.383       .  A
C249        H252   1.082       .  S
C250        C251   1.389       .  A
C250        C575   1.483       .  S
C251        H253   1.081       .  S
N254        N255   1.324       .  A
N254        C258   1.345       .  A
N255        C256   1.348       .  A
C256        C257   1.382       .  A
C256        H259   1.082       .  S
C257        C258   1.379       .  A
C257        C587   1.441       .  S
C258        H260   1.082       .  S
N261        C266   1.354       .  A
N261        C265   1.354   1_655  A
N261        H293   1.038       .  S
N262        C269   1.353       .  A
N262        C270   1.352       .  A
N263        C268   1.355       .  A
N263        C267   1.354   1_655  A
N263        H294   1.038       .  S
N264        C271   1.352       .  A
N264        C272   1.352       .  A
C265        C273   1.387       .  A
C265        C281   1.415       .  A
C266        C282   1.414       .  A
C266        C274   1.387       .  A
C267        C275   1.387       .  A
C267        C284   1.415       .  A
C268        C283   1.416       .  A
C268        C276   1.387       .  A
C269        C281   1.414       .  A
C269        C277   1.385       .  A
C270        C284   1.415       .  A
C270        C278   1.387       .  A
C271        C279   1.386       .  A
C271        C282   1.415       .  A
C272        C280   1.385       .  A
C272        C283   1.414       .  A
C273        C274   1.374   1_455  A
C273        H285   1.082       .  S
C274        H286   1.082       .  S
C275        C276   1.375   1_455  A
C275        H287   1.082       .  S
C276        H288   1.082       .  S
C277        C278   1.373       .  A
C277        H289   1.082       .  S
C278        H290   1.082       .  S
C279        C280   1.372       .  A
C279        H291   1.082       .  S
C280        H292   1.082       .  S
C281        C553   1.489       .  S
C282        C557   1.489       .  S
C283        C549   1.492       .  S
C284        C545   1.489       .  S
N295        N296   1.323       .  A
N295        C299   1.348       .  A
N295       Cu303   2.087       .  S
N296        C297   1.346       .  A
N296       Cu302   2.073       .  S
C297        C298   1.380       .  A
C297        H300   1.082       .  S
C298        C299   1.382       .  A
C298        C543   1.442       .  S
C299        H301   1.082       .  S
Cu302       N305   2.073       .  S
Cu303       N313   2.087       .  S
Cu304       N306   2.078       .  S
Cu304       N312   2.078       .  S
N305        N306   1.322       .  A
N305        C309   1.345       .  A
N306        C307   1.346       .  A
C307        C308   1.383       .  A
C307        H310   1.082       .  S
C308        C309   1.385       .  A
C308        C546   1.477       .  S
C309        H311   1.081       .  S
N312        N313   1.324       .  A
N312        C316   1.346       .  A
N313        C314   1.348       .  A
C314        C315   1.382       .  A
C314        H317   1.082       .  S
C315        C316   1.380       .  A
C315        C580   1.442       .  S
C316        H318   1.082       .  S
N319        N320   1.325       .  A
N319        C323   1.346       .  A
N319       Cu327   2.083       .  S
N320        C321   1.348       .  A
N320       Cu326   2.086       .  S
C321        C322   1.382       .  A
C321        H324   1.082       .  S
C322        C323   1.380       .  A
C322        C563   1.443       .  S
C323        H325   1.082       .  S
Cu326       N329   2.085       .  S
Cu327       N337   2.083       .  S
Cu328       N330   2.070       .  S
Cu328       N336   2.070       .  S
N329        N330   1.322       .  A
N329        C333   1.347       .  A
N330        C331   1.344       .  A
C331        C332   1.385       .  A
C331        H334   1.081       .  S
C332        C333   1.385       .  A
C332        C554   1.481       .  S
C333        H335   1.082       .  S
N336        N337   1.323       .  A
N336        C340   1.345       .  A
N337        C338   1.348       .  A
C338        C339   1.383       .  A
C338        H341   1.082       .  S
C339        C340   1.379       .  A
C339        C541   1.441       .  S
C340        H342   1.082       .  S
N343        N344   1.323       .  A
N343        C347   1.347       .  A
N343       Cu351   2.083       .  S
N344        C345   1.345       .  A
N344       Cu350   2.070       .  S
C345        C346   1.378       .  A
C345        H348   1.082       .  S
C346        C347   1.382       .  A
C346        C539   1.439       .  S
C347        H349   1.082       .  S
Cu350       N353   2.070       .  S
Cu351       N361   2.084       .  S
Cu352       N354   2.086       .  S
Cu352       N360   2.087       .  S
N353        N354   1.322       .  A
N353        C357   1.345       .  A
N354        C355   1.347       .  A
C355        C356   1.385       .  A
C355        H358   1.082       .  S
C356        C357   1.385       .  A
C356        C550   1.481       .  S
C357        H359   1.081       .  S
N360        N361   1.324       .  A
N360        C364   1.347       .  A
N361        C362   1.348       .  A
C362        C363   1.382       .  A
C362        H365   1.082       .  S
C363        C364   1.381       .  A
C363        C566   1.444       .  S
C364        H366   1.082       .  S
N367        N368   1.324       .  A
N367        C371   1.347       .  A
N367       Cu375   2.086       .  S
N368        C369   1.347       .  A
N368       Cu374   2.079       .  S
C369        C370   1.381       .  A
C369        H372   1.082       .  S
C370        C371   1.382       .  A
C370        C562   1.443       .  S
C371        H373   1.082       .  S
Cu374       N377   2.079       .  S
Cu375       N385   2.086       .  S
Cu376       N378   2.071       .  S
Cu376       N384   2.071       .  S
N377        N378   1.322       .  A
N377        C381   1.345       .  A
N378        C379   1.345       .  A
C379        C380   1.386       .  A
C379        H382   1.081       .  S
C380        C381   1.383       .  A
C380        C558   1.477       .  S
C381        H383   1.082       .  S
N384        N385   1.323       .  A
N384        C388   1.345       .  A
N385        C386   1.348       .  A
C386        C387   1.382       .  A
C386        H389   1.082       .  S
C387        C388   1.378       .  A
C387        C538   1.440       .  S
C388        H390   1.082       .  S
N391        C396   1.353   1_655  A
N391        C395   1.354       .  A
N391        H423   1.042       .  S
N392        C399   1.354       .  A
N392        C400   1.352       .  A
N393        C398   1.354   1_655  A
N393        C397   1.352       .  A
N393        H424   1.042       .  S
N394        C401   1.351       .  A
N394        C402   1.353       .  A
C395        C403   1.387       .  A
C395        C411   1.415       .  A
C396        C412   1.415       .  A
C396        C404   1.388       .  A
C397        C405   1.388       .  A
C397        C414   1.415       .  A
C398        C413   1.415       .  A
C398        C406   1.387       .  A
C399        C411   1.415       .  A
C399        C407   1.385       .  A
C400        C414   1.416       .  A
C400        C408   1.387       .  A
C401        C409   1.387       .  A
C401        C412   1.415       .  A
C402        C410   1.386       .  A
C402        C413   1.415       .  A
C403        C404   1.374   1_655  A
C403        H415   1.082       .  S
C404        H416   1.082       .  S
C405        C406   1.374   1_655  A
C405        H417   1.082       .  S
C406        H418   1.082       .  S
C407        C408   1.372       .  A
C407        H419   1.082       .  S
C408        H420   1.082       .  S
C409        C410   1.372       .  A
C409        H421   1.082       .  S
C410        H422   1.082       .  S
C411        C529   1.492       .  S
C412        C525   1.486       .  S
C413        C521   1.491       .  S
C414        C533   1.487       .  S
N425        N426   1.324       .  A
N425        C429   1.348       .  A
N425       Cu433   2.085       .  S
N426        C427   1.346       .  A
N426       Cu432   2.077       .  S
C427        C428   1.380       .  A
C427        H430   1.082       .  S
C428        C429   1.382       .  A
C428        C542   1.441   1_556  S
C429        H431   1.082       .  S
Cu432       N435   2.077       .  S
Cu433       N443   2.085       .  S
Cu434       N436   2.076       .  S
Cu434       N442   2.077       .  S
N435        N436   1.322       .  A
N435        C439   1.346       .  A
N436        C437   1.345       .  A
C437        C438   1.383       .  A
C437        H440   1.082       .  S
C438        C439   1.387       .  A
C438        C522   1.479       .  S
C439        H441   1.081       .  S
N442        N443   1.324       .  A
N442        C446   1.346       .  A
N443        C444   1.348       .  A
C444        C445   1.382       .  A
C444        H447   1.082       .  S
C445        C446   1.380       .  A
C445        C590   1.441       .  S
C446        H448   1.082       .  S
N449        N450   1.323       .  A
N449        C453   1.347       .  A
N449       Cu457   2.085       .  S
N450        C451   1.347       .  A
N450       Cu456   2.075       .  S
C451        C452   1.380       .  A
C451        H454   1.082       .  S
C452        C453   1.382       .  A
C452        C544   1.442   1_545  S
C453        H455   1.082       .  S
Cu456       N459   2.074       .  S
Cu457       N467   2.085       .  S
Cu458       N460   2.071       .  S
Cu458       N466   2.072       .  S
N459        N460   1.322       .  A
N459        C463   1.344       .  A
N460        C461   1.345       .  A
C461        C462   1.381       .  A
C461        H464   1.082       .  S
C462        C463   1.386       .  A
C462        C526   1.475       .  S
C463        H465   1.081       .  S
N466        N467   1.323       .  A
N466        C470   1.346       .  A
N467        C468   1.347       .  A
C468        C469   1.382       .  A
C468        H471   1.082       .  S
C469        C470   1.380       .  A
C469        C610   1.441       .  S
C470        H472   1.082       .  S
N473        N474   1.324       .  A
N473        C477   1.347       .  A
N473       Cu481   2.083       .  S
N474        C475   1.345       .  A
N474       Cu480   2.072       .  S
C475        C476   1.379       .  A
C475        H478   1.082       .  S
C476        C477   1.381       .  A
C476        C540   1.439   1_546  S
C477        H479   1.082   1_545  S
Cu480       N483   2.072       .  S
Cu481       N491   2.084       .  S
Cu482       N484   2.087       .  S
Cu482       N490   2.087       .  S
N483        N484   1.322       .  A
N483        C487   1.345       .  A
N484        C485   1.347       .  A
C485        C486   1.385       .  A
C485        H488   1.082       .  S
C486        C487   1.386       .  A
C486        C530   1.482       .  S
C487        H489   1.081       .  S
N490        N491   1.324       .  A
N490        C494   1.347       .  A
N491        C492   1.348       .  A
C492        C493   1.382       .  A
C492        H495   1.082       .  S
C493        C494   1.382       .  A
C493        C594   1.445       .  S
C494        H496   1.082       .  S
N497        N498   1.323       .  A
N497        C501   1.347       .  A
N497       Cu505   2.078       .  S
N498        C499   1.345       .  A
N498       Cu504   2.071       .  S
C499        C500   1.379       .  A
C499        H502   1.082       .  S
C500        C501   1.381       .  A
C500        C586   1.439       .  S
C501        H503   1.082       .  S
Cu504       N507   2.071       .  S
Cu505       N515   2.078       .  S
Cu506       N508   2.078       .  S
Cu506       N514   2.079       .  S
N507        N508   1.322       .  A
N507        C511   1.345       .  A
N508        C509   1.345       .  A
C509        C510   1.386       .  A
C509        H512   1.081       .  S
C510        C511   1.381       .  A
C510        C534   1.476       .  S
C511        H513   1.082       .  S
N514        N515   1.324       .  A
N514        C518   1.347       .  A
N515        C516   1.346       .  A
C516        C517   1.380       .  A
C516        H519   1.082       .  S
C517        C518   1.381       .  A
C517        C537   1.440       .  S
C518        H520   1.082       .  S
C521        C522   1.344       .  D
C521        H523   1.086       .  S
C522        H524   1.087       .  S
C525        C526   1.342       .  D
C525        H527   1.085       .  S
C526        H528   1.087       .  S
C529        C530   1.346       .  D
C529        H531   1.085       .  S
C530        H532   1.087       .  S
C533        C534   1.342       .  D
C533        H535   1.086       .  S
C534        H536   1.087       .  S
C537        C538   1.208   1_556  T
C539        C540   1.207       .  T
C541        C542   1.208       .  T
C543        C544   1.209   1_554  T
C545        C546   1.344       .  D
C545        H547   1.086       .  S
C546        H548   1.087       .  S
C549        C550   1.346       .  D
C549        H551   1.085       .  S
C550        H552   1.087       .  S
C553        C554   1.345       .  D
C553        H555   1.085       .  S
C554        H556   1.087       .  S
C557        C558   1.344       .  D
C557        H559   1.086       .  S
C558        H560   1.087       .  S
C561        C562   1.210       .  T
C563        C564   1.209       .  T
C565        C566   1.210       .  T
C567        C568   1.344       .  D
C567        H569   1.086       .  S
C568        H570   1.087       .  S
C571        C572   1.344       .  D
C571        H573   1.085       .  S
C572        H574   1.087       .  S
C575        C576   1.345       .  D
C575        H577   1.087       .  S
C576        H578   1.086       .  S
C579        C580   1.209       .  T
C581        C582   1.346       .  D
C581        H583   1.087       .  S
C582        H584   1.085       .  S
C585        C586   1.207       .  T
C587        C588   1.208       .  T
C589        C590   1.208       .  T
C591        C592   1.207       .  T
C593        C594   1.211       .  T
C595        C596   1.210       .  T
C597        C598   1.343       .  D
C597        H599   1.087       .  S
C598        H600   1.085       .  S
C601        C602   1.345       .  D
C601        H603   1.085       .  S
C602        H604   1.087       .  S
C605        C606   1.344       .  D
C605        H607   1.085       .  S
C606        H608   1.087       .  S
C609        C610   1.208       .  T
C611        C612   1.208   1_545  T
C613        C614   1.343       .  D
C613        H615   1.087       .  S
C614        H616   1.086       .  S
