geometry optimzed in LAMMPS
_audit_creation_date              2020-11-30 
_audit_creation_method            'lammps2cif' 
_symmetry_space_group_name_H-M    'P1' 
_symmetry_Int_Tables_number       1 
_symmetry_cell_setting            triclinic 
loop_ 
_symmetry_equiv_pos_as_xyz 
  x,y,z 
_cell_length_a                    31.446535 
_cell_length_b                    31.13800592015777 
_cell_length_c                    52.268546113100214 
_cell_angle_alpha                 90.39996402418991 
_cell_angle_beta                  89.47501968405103 
_cell_angle_gamma                 90.00252169096193 
loop_ 
_atom_site_label 
_atom_site_type_symbol 
_atom_site_fract_x 
_atom_site_fract_y 
_atom_site_fract_z 
_atom_site_charge 
N1          N  0.24045762  0.12935534  0.79676683    -0.26500
N2          N  0.26595316  0.13293800  0.77663389    -0.34300
C3          C  0.25281077  0.10563139  0.75832658     0.01900
C4          C  0.21772822  0.08287689  0.76727458     0.07900
C5          C  0.21028001  0.09999898  0.79156430    -0.05200
H6          H  0.26680365  0.10368724  0.73937633     0.08600
H7          H  0.18363094  0.09343019  0.80413577     0.09800
Cu8        Cu  0.31515725  0.17738574  0.77312354     0.44200
Cu9        Cu  0.24620994  0.16509630  0.83039925     0.42000
Cu10       Cu  0.32486341  0.24847693  0.82644638     0.43900
N11         N  0.35831037  0.22810239  0.77387107    -0.33900
N12         N  0.36041647  0.25511069  0.79336104    -0.28100
C13         C  0.38864487  0.28615589  0.78794191    -0.04200
C14         C  0.40692996  0.27771922  0.76412871     0.08000
C15         C  0.38571551  0.24110354  0.75557348     0.01800
H16         H  0.39385835  0.31386871  0.80007705     0.09400
H17         H  0.38901285  0.22591512  0.73698373     0.08500
N18         N  0.29159120  0.23438309  0.85952921    -0.35300
N19         N  0.26223215  0.20417271  0.86134012    -0.27500
C20         C  0.24607911  0.20459421  0.88533869    -0.02700
C21         C  0.26663678  0.23660485  0.89914221     0.05900
C22         C  0.29522402  0.25456092  0.88215909     0.04000
H23         H  0.22079338  0.18380406  0.89196812     0.09100
H24         H  0.31628754  0.28135936  0.88575734     0.07900
N25         N  0.99616821  0.23430427  0.70398535    -0.26500
N26         N  0.01992084  0.22903052  0.72445093    -0.34300
C27         C  0.00553136  0.25533884  0.74310221     0.01900
C28         C  0.97138721  0.27896443  0.73399096     0.07900
C29         C  0.96592286  0.26370178  0.70919125    -0.05200
H30         H  0.01800024  0.25615219  0.76231924     0.08600
H31         H  0.43898138  0.27389355  0.69292769     0.09800
Cu32       Cu  0.06842467  0.18357810  0.72720931     0.44200
Cu33       Cu  0.00444229  0.20048944  0.67003706     0.42000
Cu34       Cu  0.08534903  0.11785795  0.67149152     0.43900
N35         N  0.11225589  0.13326566  0.72574048    -0.33900
N36         N  0.11766021  0.10867830  0.70530473    -0.28100
C37         C  0.14596457  0.07766558  0.71052064    -0.04200
C38         C  0.16049711  0.08346538  0.73535185     0.08000
C39         C  0.13736156  0.11862181  0.74448267     0.01800
H40         H  0.15371687  0.05171815  0.69745864     0.09400
H41         H  0.13797502  0.13189976  0.76364860     0.08500
N42         N  0.05097339  0.13318402  0.63926731    -0.35300
N43         N  0.02135862  0.16326173  0.63855997    -0.27500
C44         C  0.00426378  0.16374374  0.61504725    -0.02700
C45         C  0.02424995  0.13237163  0.60032623     0.05900
C46         C  0.05354391  0.11372716  0.61630865     0.04000
H47         H  0.97825201  0.18430725  0.60951654     0.09100
H48         H  0.07426112  0.08691944  0.61183988     0.07900
N49         N  0.13253123  0.98231963  0.79698726    -0.26500
N50         N  0.10931918  0.97710113  0.77620979    -0.34300
C51         C  0.12525780  0.00199001  0.75753449     0.01900
C52         C  0.15981148  0.02486265  0.76685234     0.07900
C53         C  0.16393626  0.01051240  0.79187479    -0.05200
H54         H  0.11295977  0.00289707  0.73828794     0.08600
H55         H  0.18878225  0.01857454  0.80521922     0.09800
Cu56       Cu  0.06162883  0.43758291  0.77507582     0.44200
Cu57       Cu  0.12247725  0.45694361  0.83349279     0.42000
Cu58       Cu  0.04113586  0.37519002  0.83116887     0.43900
N59         N  0.51349414  0.38487260  0.77404867    -0.33900
N60         N  0.50588831  0.36198335  0.79476110    -0.28100
C61         C  0.47674741  0.33174400  0.78935804    -0.04200
C62         C  0.46408531  0.33628347  0.76408302     0.08000
C63         C  0.48895467  0.36996713  0.75498212     0.01800
H64         H  0.46738617  0.30695614  0.80262433     0.09400
H65         H  0.49007655  0.38184736  0.73559381     0.08500
N66         N  0.07268758  0.39239527  0.86415705    -0.35300
N67         N  0.10293885  0.42180470  0.86521449    -0.27500
C68         C  0.11869640  0.42287366  0.88909349    -0.02700
C69         C  0.09707421  0.39266372  0.90366125     0.05900
C70         C  0.06815881  0.37419050  0.88722242     0.04000
H71         H  0.14493553  0.44296057  0.89500201     0.09100
H72         H  0.04677309  0.34787614  0.89138282     0.07900
N73         N  0.38349231  0.38248301  0.70347902    -0.26500
N74         N  0.35723434  0.38485287  0.72329380    -0.34300
C75         C  0.37048304  0.35729959  0.74122750     0.01900
C76         C  0.40648057  0.33564957  0.73223828     0.07900
C77         C  0.41427766  0.35379449  0.70842616    -0.05200
H78         H  0.35592606  0.35450994  0.75995811     0.08600
H79         H  0.44147480  0.34834233  0.69604009     0.09800
Cu80       Cu  0.30733116  0.42889606  0.72624241     0.41600
Cu81       Cu  0.37715023  0.41930298  0.67090548     0.42000
Cu82       Cu  0.29616011  0.50096602  0.67232674     0.43900
N83         N  0.26466013  0.48023095  0.72555474    -0.33900
N84         N  0.26182248  0.50698030  0.70614537    -0.28100
C85         C  0.23420267  0.53840659  0.71222487    -0.04200
C86         C  0.21721158  0.53063103  0.73639187     0.08000
C87         C  0.23839285  0.49388409  0.74440554     0.01800
H88         H  0.22774646  0.05887100  0.69797136     0.09400
H89         H  0.23581634  0.47895107  0.76297915     0.08500
N90         N  0.33279657  0.48721011  0.64020297    -0.35300
N91         N  0.36246069  0.45715306  0.63978980    -0.27500
C92         C  0.38086143  0.45610187  0.61650867    -0.02700
C93         C  0.36195595  0.48695064  0.60152587     0.05900
C94         C  0.33156599  0.50620756  0.61716302     0.04000
H95         H  0.40674608  0.43497110  0.61103776     0.09100
H96         H  0.31063580  0.53248195  0.61243511     0.07900
C97         C  0.43552884  0.30694868  0.74805213    -0.01700
C98         C  0.18902358  0.05404802  0.75111317    -0.01700
O99         O  0.23964010  0.29354134  0.02657127    -0.72100
O100        O  0.19177280  0.37265561  0.97405682    -0.73100
O101        O  0.19490896  0.37143380  0.02888414    -0.61700
O102        O  0.23643930  0.29448748  0.97180413    -0.70100
O103        O  0.17601269  0.25770692  0.97309330    -0.69700
O104        O  0.13441908  0.33475533  0.02995879    -0.60900
O105        O  0.13131621  0.33587081  0.97502423    -0.73500
O106        O  0.17911152  0.25687254  0.02778424    -0.72200
Cu107      Cu  0.21782215  0.33424991  0.00026861     1.04600
Cu108      Cu  0.15306848  0.29510904  0.00149311     1.04300
C109        C  0.21643832  0.26395885  0.03620862     0.94100
C110        C  0.15449605  0.36563971  0.96553605     0.93200
C111        C  0.15863064  0.36398225  0.03909917     0.85400
C112        C  0.21235418  0.26490942  0.96292902     0.91600
O113        O  0.42436280  0.01582786  0.52999451    -0.72100
O114        O  0.49598559  0.06589729  0.47375867    -0.73100
O115        O  0.49005261  0.07667397  0.52831512    -0.61700
O116        O  0.43004754  0.00512926  0.47549126    -0.70100
O117        O  0.38227504  0.05700553  0.47126000    -0.69700
O118        O  0.44261680  0.12872267  0.52352580    -0.60900
O119        O  0.44803229  0.11747177  0.46905249    -0.73500
O120        O  0.37675070  0.06783632  0.52574304    -0.72200
Cu121      Cu  0.46175916  0.03907594  0.50208442     1.04600
Cu122      Cu  0.41078563  0.09456316  0.49722724     1.04300
C123        C  0.39023341  0.03467957  0.53739567     0.94100
C124        C  0.48226720  0.09862189  0.46179879     0.93200
C125        C  0.47487014  0.11326703  0.53490286     0.85400
C126        C  0.39761195  0.02068475  0.46431901     0.91600
N127        N  0.23233866  0.15495649  0.20503142    -0.26500
N128        N  0.25535054  0.16106211  0.22575751    -0.34300
C129        C  0.23949914  0.13658114  0.24467778     0.01900
C130        C  0.20525853  0.11306829  0.23541128     0.07900
C131        C  0.20126159  0.12657832  0.21024673    -0.05200
H132        H  0.25192995  0.13598592  0.26389625     0.08600
H133        H  0.17697636  0.11745107  0.19676159     0.09800
Cu134      Cu  0.30688233  0.20299671  0.22750502     0.44200
Cu135      Cu  0.24464247  0.18462173  0.17032935     0.42000
Cu136      Cu  0.33410098  0.25807650  0.16921470     0.43900
N137        N  0.35523498  0.24848827  0.22468751    -0.33900
N138        N  0.36455347  0.26916252  0.20340541    -0.28100
C139        C  0.39498221  0.29839591  0.20814438    -0.04200
C140        C  0.40633518  0.29564002  0.23370268     0.08000
C141        C  0.37982746  0.26386085  0.24353121     0.01800
H142        H  0.40601043  0.32138483  0.19420259     0.09400
H143        H  0.37745614  0.25380739  0.26324950     0.08500
N144        N  0.29964950  0.24122497  0.13728856    -0.35300
N145        N  0.26669063  0.21488689  0.13755785    -0.27500
C146        C  0.25018932  0.21289160  0.11391811    -0.02700
C147        C  0.27410968  0.23928108  0.09809261     0.05900
C148        C  0.30511110  0.25658891  0.11356107     0.04000
H149        H  0.22194182  0.19493556  0.10902157     0.09100
H150        H  0.32874135  0.28023641  0.10824315     0.07900
N151        N  0.97532818  0.25417037  0.29666942    -0.26500
N152        N  0.00104996  0.25037318  0.27671289    -0.34300
C153        C  0.98768863  0.27692616  0.25828830     0.01900
C154        C  0.95220689  0.29948884  0.26716239     0.07900
C155        C  0.94473939  0.28284853  0.29141418    -0.05200
H156        H  0.00200675  0.27869192  0.23944270     0.08600
H157        H  0.42726018  0.27948410  0.29961696     0.09800
Cu158      Cu  0.05115768  0.20677299  0.27519979     0.44200
Cu159      Cu  0.98335481  0.21983394  0.32992368     0.42000
Cu160      Cu  0.06867908  0.14115626  0.33169699     0.43900
N161        N  0.09675926  0.15853882  0.27738478    -0.33900
N162        N  0.10244205  0.13407235  0.29761891    -0.28100
C163        C  0.13217087  0.10429444  0.29205160    -0.04200
C164        C  0.14712783  0.11091394  0.26726344     0.08000
C165        C  0.12303287  0.14515392  0.25854214     0.01800
H166        H  0.14048780  0.07849086  0.30478161     0.09400
H167        H  0.12366188  0.15848187  0.23948450     0.08500
N168        N  0.03088968  0.15727782  0.36307883    -0.35300
N169        N  0.99997878  0.18598890  0.36215370    -0.27500
C170        C  0.98074305  0.18853813  0.38512162    -0.02700
C171        C  0.00027824  0.16012097  0.40135437     0.05900
C172        C  0.03202613  0.14066990  0.38678488     0.04000
H173        H  0.95350407  0.20862863  0.38943784     0.09100
H174        H  0.05340992  0.11541835  0.39258781     0.07900
N175        N  0.12918871  0.00663523  0.20462248    -0.26500
N176        N  0.10114261  0.00414050  0.22347374    -0.34300
C177        C  0.11221515  0.03226698  0.24190695     0.01900
C178        C  0.14862248  0.05432772  0.23411069     0.07900
C179        C  0.15886696  0.03592731  0.21057333    -0.05200
H180        H  0.09611458  0.03509249  0.26021591     0.08600
H181        H  0.18707237  0.04164164  0.19911477     0.09800
Cu182      Cu  0.04656133  0.45593985  0.22704386     0.44200
Cu183      Cu  0.12252409  0.45990809  0.17289493     0.42000
Cu184      Cu  0.03687537  0.38377542  0.17350339     0.43900
N185        N  0.50967627  0.40630828  0.22347295    -0.33900
N186        N  0.51004700  0.37803460  0.20458303    -0.28100
C187        C  0.48319517  0.34581384  0.21003666    -0.04200
C188        C  0.46328074  0.35458736  0.23325989     0.08000
C189        C  0.48201447  0.39283976  0.24147622     0.01800
H190        H  0.47991052  0.31723780  0.19835620     0.09400
H191        H  0.47695830  0.40884696  0.25968670     0.08500
N192        N  0.07477594  0.39475058  0.14174180    -0.35300
N193        N  0.10658588  0.42246727  0.14116875    -0.27500
C194        C  0.12505316  0.42096195  0.11777418    -0.02700
C195        C  0.10351598  0.39082755  0.10305417     0.05900
C196        C  0.07198119  0.37501537  0.11891299     0.04000
H197        H  0.15245396  0.43977824  0.11216648     0.09100
H198        H  0.04915139  0.35017977  0.11436300     0.07900
N199        N  0.37703287  0.39255634  0.29653660    -0.26500
N200        N  0.35607349  0.40132074  0.27545520    -0.34300
C201        C  0.37314663  0.37835740  0.25609339     0.01900
C202        C  0.40621196  0.35342483  0.26544758     0.07900
C203        C  0.40807657  0.36411933  0.29121844    -0.05200
H204        H  0.36272733  0.38001232  0.23645555     0.08600
H205        H  0.43115766  0.35364152  0.30502331     0.09800
Cu206      Cu  0.30664829  0.44580506  0.27414871     0.44200
Cu207      Cu  0.36310112  0.42061392  0.33128786     0.42000
Cu208      Cu  0.28265153  0.50411673  0.33346959     0.43900
N209        N  0.26054179  0.49369470  0.27734194    -0.33900
N210        N  0.25223784  0.51546629  0.29860920    -0.28100
C211        C  0.22257625  0.54545934  0.29361990    -0.04200
C212        C  0.21058677  0.54192414  0.26805779     0.08000
C213        C  0.23619396  0.50905636  0.25844885     0.01800
H214        H  0.21443923  0.08662601  0.30366495     0.09400
H215        H  0.23777735  0.49781541  0.23884096     0.08500
N216        N  0.31797401  0.48481102  0.36523414    -0.35300
N217        N  0.34662336  0.45377082  0.36401726    -0.27500
C218        C  0.36580042  0.45013463  0.38671634    -0.02700
C219        C  0.34881213  0.48035247  0.40323374     0.05900
C220        C  0.31838890  0.50189984  0.38902233     0.04000
H221        H  0.39196440  0.42858084  0.39047639     0.09100
H222        H  0.29948612  0.52923741  0.39502093     0.07900
C223        C  0.43544967  0.32476184  0.24932497    -0.01700
C224        C  0.17665058  0.08289474  0.25084492    -0.01700
C225        C  0.50471258  0.11261064  0.43834648    -0.15600
C226        C  0.98491024  0.14975168  0.42727256    -0.30800
H227        H  0.03076493  0.10241788  0.43546810     0.13400
H228        H  0.95604108  0.16587230  0.43369107     0.14000
C229        C  0.38011540  0.99800773  0.44185608    -0.15600
C230        C  0.36621117  0.49078396  0.42870659    -0.30800
H231        H  0.39536805  0.96839032  0.43566373     0.13400
H232        H  0.39418675  0.47312223  0.43466518     0.14000
C233        C  0.11281515  0.37452996  0.07697867    -0.15600
C234        C  0.14607517  0.38750737  0.06266918    -0.30800
H235        H  0.09277842  0.34858175  0.07005444     0.13400
H236        H  0.16685169  0.41279657  0.06960326     0.14000
C237        C  0.23112119  0.24006319  0.05868817    -0.15600
C238        C  0.26538454  0.25310481  0.07176063    -0.30800
H239        H  0.21035931  0.21544374  0.06644791     0.13400
H240        H  0.28558393  0.27827488  0.06402807     0.14000
C241        C  0.37545680  0.49816320  0.57532148    -0.15600
C242        C  0.36761096  0.01990922  0.56061228    -0.30800
H243        H  0.40208947  0.48012060  0.56735902     0.13400
H244        H  0.33947362  0.03736206  0.56690463     0.14000
C245        C  0.10610448  0.37708667  0.92965247    -0.15600
C246        C  0.13980057  0.39016968  0.94324478    -0.30800
H247        H  0.08666448  0.35072470  0.93663511     0.13400
H248        H  0.16009981  0.41568543  0.93609746     0.14000
C249        C  0.01369167  0.11664560  0.57449648    -0.15600
C250        C  0.49232413  0.13677988  0.55706515    -0.30800
H251        H  0.02939330  0.08735987  0.56808282     0.13400
H252        H  0.47737730  0.16694308  0.56252139     0.14000
C253        C  0.25821761  0.25310341  0.92524761    -0.15600
C254        C  0.22506952  0.24053100  0.93973636    -0.30800
H255        H  0.27813799  0.27942813  0.93178175     0.13400
H256        H  0.20421876  0.21510015  0.93306876     0.14000
N257        N  0.24196804  0.63510185  0.79798785    -0.26500
N258        N  0.26770142  0.63756419  0.77792491    -0.34300
C259        C  0.25377514  0.61051970  0.75968791     0.01900
C260        C  0.21790366  0.58902440  0.76866536     0.07900
C261        C  0.21080783  0.60676976  0.79284271    -0.05200
H262        H  0.26806292  0.60765448  0.74086020     0.08600
H263        H  0.18402590  0.60101483  0.80546062     0.09800
Cu264      Cu  0.31883522  0.67987587  0.77498838     0.44200
Cu265      Cu  0.25000910  0.67055175  0.83148015     0.42000
Cu266      Cu  0.33439222  0.74912131  0.82922864     0.43900
N267        N  0.36436769  0.72845677  0.77588008    -0.33900
N268        N  0.36871140  0.75465877  0.79562202    -0.28100
C269        C  0.39746553  0.78501797  0.78984298    -0.04200
C270        C  0.41374954  0.77690983  0.76547897     0.08000
C271        C  0.39090263  0.74123799  0.75708273     0.01800
H272        H  0.40396065  0.81233791  0.80205307     0.09400
H273        H  0.39225212  0.72680783  0.73820542     0.08500
N274        N  0.29881009  0.73671694  0.86166271    -0.35300
N275        N  0.26792179  0.70799054  0.86269239    -0.27500
C276        C  0.25049268  0.70881695  0.88629537    -0.02700
C277        C  0.27154974  0.73965673  0.90073317     0.05900
C278        C  0.30186705  0.75662205  0.88445521     0.04000
H279        H  0.22356212  0.68946696  0.89207097     0.09100
H280        H  0.32371725  0.78253264  0.88861290     0.07900
N281        N  0.99534026  0.73661329  0.70250473    -0.26500
N282        N  0.01780774  0.73149884  0.72351443    -0.34300
C283        C  0.00089629  0.75614843  0.74217201     0.01900
C284        C  0.96635817  0.77856167  0.73256917     0.07900
C285        C  0.96341425  0.76439447  0.70737287    -0.05200
H286        H  0.01215248  0.75684235  0.76166685     0.08600
H287        H  0.44307961  0.77169693  0.69397122     0.09800
Cu288      Cu  0.06802100  0.68834925  0.72717943     0.44200
Cu289      Cu  0.00745471  0.70414868  0.66837982     0.42000
Cu290      Cu  0.08644490  0.62089532  0.67202741     0.43900
N291        N  0.11204868  0.63833715  0.72651405    -0.33900
N292        N  0.11761559  0.61306314  0.70638595    -0.28100
C293        C  0.14579723  0.58226320  0.71208279    -0.04200
C294        C  0.16014218  0.58890546  0.73687745     0.08000
C295        C  0.13699458  0.62435143  0.74553461     0.01800
H296        H  0.15374708  0.55597071  0.69931066     0.09400
H297        H  0.13752345  0.63829182  0.76453848     0.08500
N298        N  0.05420318  0.63541004  0.63883890    -0.35300
N299        N  0.02540880  0.66616741  0.63731083    -0.27500
C300        C  0.00914938  0.66605165  0.61357425    -0.02700
C301        C  0.02873677  0.63351573  0.59953537     0.05900
C302        C  0.05703895  0.61486703  0.61619202     0.04000
H303        H  0.98364229  0.68680650  0.60749864     0.09100
H304        H  0.07704449  0.58722977  0.61243505     0.07900
N305        N  0.13333960  0.48850378  0.79907161    -0.26500
N306        N  0.11065057  0.48208269  0.77823031    -0.34300
C307        C  0.12606849  0.50703513  0.75945310     0.01900
C308        C  0.15980393  0.53111622  0.76879596     0.07900
C309        C  0.16394298  0.51753108  0.79395743    -0.05200
H310        H  0.11425826  0.50690064  0.74008109     0.08600
H311        H  0.18847079  0.52637251  0.80733777     0.09800
Cu312      Cu  0.05818509  0.93487289  0.77272495     0.44200
Cu313      Cu  0.12109348  0.95103952  0.83161807     0.42000
Cu314      Cu  0.03569646  0.87441732  0.82832778     0.43900
N315        N  0.51881918  0.88602044  0.77353911    -0.33900
N316        N  0.51294597  0.86252233  0.79417168    -0.28100
C317        C  0.48488351  0.83119471  0.78912249    -0.04200
C318        C  0.47076114  0.83567779  0.76419215     0.08000
C319        C  0.49401956  0.87036978  0.75478945     0.01800
H320        H  0.47702947  0.80599109  0.80245349     0.09400
H321        H  0.49355670  0.88271793  0.73550661     0.08500
N322        N  0.06727500  0.88876591  0.86140851    -0.35300
N323        N  0.09913265  0.91626140  0.86311538    -0.27500
C324        C  0.11424737  0.91518079  0.88716278    -0.02700
C325        C  0.09045116  0.88549908  0.90099168     0.05900
C326        C  0.06105948  0.86966431  0.88402576     0.04000
H327        H  0.14161679  0.93311458  0.89362354     0.09100
H328        H  0.03816695  0.84436525  0.88746791     0.07900
N329        N  0.38784740  0.87976314  0.70442203    -0.26500
N330        N  0.36242470  0.88294453  0.72456525    -0.34300
C331        C  0.37645200  0.85603743  0.74263503     0.01900
C332        C  0.41203874  0.83405395  0.73329467     0.07900
C333        C  0.41884283  0.85133431  0.70920078    -0.05200
H334        H  0.36269342  0.85378669  0.76161271     0.08600
H335        H  0.44552442  0.84557108  0.69646432     0.09800
Cu336      Cu  0.31238872  0.92689410  0.72702831     0.41600
Cu337      Cu  0.38020047  0.91488463  0.67158852     0.42000
Cu338      Cu  0.29873246  0.99569520  0.67101333     0.43900
N339        N  0.26781889  0.97643398  0.72487016    -0.33900
N340        N  0.26378314  0.00188269  0.70490064    -0.28100
C341        C  0.23459816  0.03223637  0.71041799    -0.04200
C342        C  0.21801066  0.02503658  0.73479465     0.08000
C343        C  0.24089923  0.98982255  0.74344303     0.01800
H344        H  0.22843215  0.56590887  0.70023599     0.09400
H345        H  0.23911397  0.97589137  0.76232400     0.08500
N346        N  0.33656454  0.98078316  0.63925645    -0.35300
N347        N  0.36625693  0.95079831  0.63984204    -0.27500
C348        C  0.38602588  0.94866100  0.61702763    -0.02700
C349        C  0.36810910  0.97870143  0.60115818     0.05900
C350        C  0.33674377  0.99869676  0.61584202     0.04000
H351        H  0.41238942  0.92750377  0.61254373     0.09100
H352        H  0.31639612  0.02494864  0.61026637     0.07900
C353        C  0.44175874  0.80583989  0.74885678    -0.01700
C354        C  0.18883884  0.56000738  0.75282475    -0.01700
O355        O  0.22584259  0.78978906  0.02832178    -0.72100
O356        O  0.17752559  0.86598773  0.97500275    -0.73100
O357        O  0.17105680  0.86062899  0.02946964    -0.61700
O358        O  0.23100010  0.79371016  0.97355141    -0.70100
O359        O  0.17586592  0.74925146  0.97189645    -0.69700
O360        O  0.11490012  0.81798413  0.02531042    -0.60900
O361        O  0.12256320  0.82182241  0.97081374    -0.73500
O362        O  0.16962163  0.74683658  0.02655360    -0.72200
Cu363      Cu  0.20333181  0.82900154  0.00168170     1.04600
Cu364      Cu  0.14379020  0.78246689  0.99848760     1.04300
C365        C  0.20477601  0.75778370  0.03683179     0.94100
C366        C  0.14327036  0.85525210  0.96382583     0.93200
C367        C  0.13386139  0.84876451  0.03664084     0.85400
C368        C  0.21205720  0.76141493  0.96351725     0.91600
O369        O  0.41013187  0.52410871  0.52842996    -0.72100
O370        O  0.48198266  0.57234311  0.47219859    -0.73100
O371        O  0.48177714  0.57739368  0.52722951    -0.61700
O372        O  0.40869067  0.52035576  0.47354038    -0.70100
O373        O  0.36606548  0.57718023  0.47406497    -0.69700
O374        O  0.44097651  0.63539115  0.52488656    -0.60900
O375        O  0.43913869  0.62883217  0.47015231    -0.73500
O376        O  0.36915617  0.58213795  0.52876904    -0.72200
Cu377      Cu  0.44708979  0.54650733  0.50035323     1.04600
Cu378      Cu  0.40243684  0.60788689  0.49940452     1.04300
C379        C  0.37984632  0.54608614  0.53834822     0.94100
C380        C  0.47097188  0.60729137  0.46156549     0.93200
C381        C  0.47158093  0.61508723  0.53510308     0.85400
C382        C  0.37635296  0.54052489  0.46495643     0.91600
N383        N  0.23590584  0.64171192  0.20532003    -0.26500
N384        N  0.25708676  0.65088096  0.22639248    -0.34300
C385        C  0.24201072  0.62624678  0.24548546     0.01900
C386        C  0.20993661  0.59981506  0.23613217     0.07900
C387        C  0.20669133  0.61133750  0.21054791    -0.05200
H388        H  0.25264290  0.62827715  0.26508405     0.08600
H389        H  0.18339117  0.60041538  0.19691388     0.09800
Cu390      Cu  0.30344404  0.69877879  0.22887420     0.44200
Cu391      Cu  0.24580704  0.67210302  0.17043367     0.42000
Cu392      Cu  0.32489999  0.75576108  0.17021887     0.43900
N393        N  0.34670679  0.74946044  0.22596410    -0.33900
N394        N  0.35402870  0.77028131  0.20445398    -0.28100
C395        C  0.38224036  0.80186853  0.20873614    -0.04200
C396        C  0.39450676  0.80056844  0.23417630     0.08000
C397        C  0.37043073  0.76726935  0.24452424     0.01800
H398        H  0.39162825  0.82494954  0.19442690     0.09400
H399        H  0.36993633  0.75700574  0.26424479     0.08500
N400        N  0.29079760  0.73796849  0.13826528    -0.35300
N401        N  0.26137089  0.70766658  0.13813657    -0.27500
C402        C  0.24346982  0.70614381  0.11481399    -0.02700
C403        C  0.26282762  0.73699502  0.09963872     0.05900
C404        C  0.29257852  0.75641278  0.11515094     0.04000
H405        H  0.21745692  0.68517101  0.10967741     0.09100
H406        H  0.31293677  0.78321362  0.11029234     0.07900
N407        N  0.98716591  0.75221173  0.29483027    -0.26500
N408        N  0.01378081  0.74811592  0.27532020    -0.34300
C409        C  0.00147759  0.77493384  0.25671141     0.01900
C410        C  0.96577172  0.79780070  0.26507503     0.07900
C411        C  0.95715191  0.78114694  0.28913988    -0.05200
H412        H  0.01634251  0.77632834  0.23800596     0.08600
H413        H  0.41973377  0.79050489  0.30073753     0.09800
Cu414      Cu  0.06249916  0.70257324  0.27458589     0.44200
Cu415      Cu  0.99171818  0.71739394  0.32798348     0.42000
Cu416      Cu  0.07053106  0.63344964  0.33074269     0.43900
N417        N  0.10459578  0.65103355  0.27763612    -0.33900
N418        N  0.10640390  0.62510709  0.29750530    -0.28100
C419        C  0.13434661  0.59338405  0.29233815    -0.04200
C420        C  0.15265392  0.60034169  0.26839036     0.08000
C421        C  0.13180016  0.63669765  0.25953173     0.01800
H422        H  0.13930269  0.56621809  0.30471376     0.09400
H423        H  0.13516870  0.65087196  0.24078579     0.08500
N424        N  0.03262777  0.65176098  0.36169282    -0.35300
N425        N  0.00373060  0.68244773  0.36037834    -0.27500
C426        C  0.98363356  0.68619715  0.38303702    -0.02700
C427        C  0.00067446  0.65658219  0.39952679     0.05900
C428        C  0.03172595  0.63513377  0.38539002     0.04000
H429        H  0.95770151  0.70816125  0.38699652     0.09100
H430        H  0.05126506  0.60858477  0.39147442     0.07900
N431        N  0.12850265  0.49558449  0.20660264    -0.26500
N432        N  0.10029290  0.49582139  0.22552858    -0.34300
C433        C  0.11384554  0.52298717  0.24389656     0.01900
C434        C  0.15221349  0.54150755  0.23621194     0.07900
C435        C  0.16085552  0.52193294  0.21272045    -0.05200
H436        H  0.09748532  0.52796548  0.26195763     0.08600
H437        H  0.18919644  0.52563823  0.20108367     0.09800
Cu438      Cu  0.05244775  0.95863788  0.22396565     0.44200
Cu439      Cu  0.12696717  0.96906185  0.17210876     0.42000
Cu440      Cu  0.05009408  0.88279600  0.17032680     0.43900
N441        N  0.50057581  0.90772976  0.22043291    -0.33900
N442        N  0.49842362  0.87921609  0.20169949    -0.28100
C443        C  0.46999434  0.84878019  0.20795465    -0.04200
C444        C  0.45161219  0.85916425  0.23147792     0.08000
C445        C  0.47295898  0.89634368  0.23898089     0.01800
H446        H  0.46514886  0.81985992  0.19680234     0.09400
H447        H  0.47022224  0.91258606  0.25728336     0.08500
N448        N  0.08715992  0.90104341  0.13905812    -0.35300
N449        N  0.11550127  0.93233872  0.14001554    -0.27500
C450        C  0.13491693  0.93583273  0.11713503    -0.02700
C451        C  0.11784178  0.90555639  0.10083848     0.05900
C452        C  0.08762092  0.88390551  0.11535762     0.04000
H453        H  0.16026499  0.95822369  0.11285615     0.09100
H454        H  0.06848874  0.85674964  0.10952934     0.07900
N455        N  0.37141673  0.90387220  0.29578382    -0.26500
N456        N  0.34776536  0.90990611  0.27534687    -0.34300
C457        C  0.36220847  0.88439505  0.25632244     0.01900
C458        C  0.39632551  0.86045579  0.26510891     0.07900
C459        C  0.40162289  0.87455815  0.29019194    -0.05200
H460        H  0.34942128  0.88389696  0.23717680     0.08600
H461        H  0.42660676  0.86575885  0.30320444     0.09800
Cu462      Cu  0.29858879  0.95451429  0.27334127     0.44200
Cu463      Cu  0.36233879  0.93627596  0.33033817     0.42000
Cu464      Cu  0.28341631  0.02067385  0.32917428     0.43900
N465        N  0.25460015  0.00440669  0.27543524    -0.33900
N466        N  0.25025326  0.02955180  0.29570582    -0.28100
C467        C  0.22159356  0.06031791  0.29073626    -0.04200
C468        C  0.20554060  0.05358372  0.26634420     0.08000
C469        C  0.22838275  0.01833119  0.25709310     0.01800
H470        H  0.21227698  0.56932952  0.30742125     0.09400
H471        H  0.22700674  0.00452423  0.23808939     0.08500
N472        N  0.31573614  0.00301269  0.36168290    -0.35300
N473        N  0.34463025  0.97222698  0.36238647    -0.27500
C474        C  0.36044882  0.97028414  0.38621927    -0.02700
C475        C  0.34034788  0.00141288  0.40112566     0.05900
C476        C  0.31230565  0.02139536  0.38491444     0.04000
H477        H  0.38586733  0.94906352  0.39185545     0.09100
H478        H  0.29205064  0.04855152  0.38940956     0.07900
C479        C  0.42429786  0.83065578  0.24877099    -0.01700
C480        C  0.18121268  0.57061949  0.25227696    -0.01700
C481        C  0.49406357  0.62102842  0.43828592    -0.15600
C482        C  0.98419135  0.64732598  0.42537295    -0.30800
H483        H  0.03014148  0.60079322  0.43465355     0.13400
H484        H  0.95521664  0.66374048  0.43132027     0.14000
C485        C  0.35188213  0.52356770  0.44313473    -0.15600
C486        C  0.35048477  0.01646311  0.42719637    -0.30800
H487        H  0.32432855  0.54173605  0.43708441     0.13400
H488        H  0.33541851  0.04612194  0.43355461     0.14000
C489        C  0.13369390  0.89526320  0.07488456    -0.15600
C490        C  0.11324677  0.86790736  0.05938332    -0.30800
H491        H  0.16437884  0.90827267  0.06918523     0.13400
H492        H  0.08231486  0.85541722  0.06497251     0.14000
C493        C  0.21966721  0.73535748  0.05991795    -0.15600
C494        C  0.25196660  0.75147857  0.07369572    -0.30800
H495        H  0.20124798  0.70841508  0.06704013     0.13400
H496        H  0.26966958  0.77891234  0.06651764     0.14000
C497        C  0.38406052  0.98894960  0.57529208    -0.15600
C498        C  0.35906637  0.53110451  0.56211463    -0.30800
H499        H  0.41235203  0.97185186  0.56883560     0.13400
H500        H  0.33300648  0.54991722  0.57006826     0.14000
C501        C  0.09794328  0.86749527  0.92657355    -0.15600
C502        C  0.12973220  0.88056118  0.94161178    -0.30800
H503        H  0.07872713  0.84006275  0.93217943     0.13400
H504        H  0.14921546  0.90779343  0.93606598     0.14000
C505        C  0.01797604  0.61668867  0.57390016    -0.15600
C506        C  0.49236124  0.63491221  0.55746640    -0.30800
H507        H  0.03243407  0.58642096  0.56810322     0.13400
H508        H  0.48304901  0.66747406  0.56252816     0.14000
C509        C  0.26100284  0.75616404  0.92657721    -0.15600
C510        C  0.22992205  0.73901997  0.94096661    -0.30800
H511        H  0.27699560  0.78518703  0.93298342     0.13400
H512        H  0.21355080  0.71034212  0.93443846     0.14000
N513        N  0.74240332  0.13495572  0.79681014    -0.26500
N514        N  0.76811040  0.13780365  0.77674591    -0.34300
C515        C  0.75401010  0.11121635  0.75832033     0.01900
C516        C  0.71809391  0.08964066  0.76718368     0.07900
C517        C  0.71113926  0.10684596  0.79149122    -0.05200
H518        H  0.76829465  0.10859864  0.73947802     0.08600
H519        H  0.68445006  0.10082434  0.80412975     0.09800
Cu520      Cu  0.81954529  0.17988573  0.77404522     0.44200
Cu521      Cu  0.75045724  0.16918784  0.83069054     0.42000
Cu522      Cu  0.83477735  0.24700273  0.82903954     0.43900
N523        N  0.86470412  0.22882096  0.77552824    -0.33900
N524        N  0.86866136  0.25433578  0.79560451    -0.28100
C525        C  0.89712590  0.28518433  0.79037649    -0.04200
C526        C  0.91376188  0.27808721  0.76602860     0.08000
C527        C  0.89131549  0.24254794  0.75702123     0.01800
H528        H  0.90321922  0.31205912  0.80300125     0.09400
H529        H  0.89304920  0.22877735  0.73798520     0.08500
N530        N  0.80017208  0.23327260  0.86146627    -0.35300
N531        N  0.76874839  0.20515866  0.86234157    -0.27500
C532        C  0.75161939  0.20562809  0.88604326    -0.02700
C533        C  0.77364151  0.23550367  0.90062619     0.05900
C534        C  0.80413671  0.25222158  0.88443011     0.04000
H535        H  0.72444454  0.18665108  0.89184432     0.09100
H536        H  0.82651048  0.27761754  0.88870932     0.07900
N537        N  0.49381734  0.23612491  0.70185629    -0.26500
N538        N  0.51530077  0.22950961  0.72309180    -0.34300
C539        C  0.49847058  0.25391639  0.74190106     0.01900
C540        C  0.46503739  0.27783969  0.73221783     0.07900
C541        C  0.46264424  0.26483070  0.70673711    -0.05200
H542        H  0.50929684  0.25376692  0.76148623     0.08600
H543        H  0.94053878  0.27144744  0.69621643     0.09800
Cu544      Cu  0.56517830  0.18595272  0.72658222     0.44200
Cu545      Cu  0.50702441  0.20479836  0.66730258     0.42000
Cu546      Cu  0.58843859  0.12312354  0.67038602     0.43900
N547        N  0.61110893  0.13776644  0.72547821    -0.33900
N548        N  0.61844806  0.11408639  0.70488016    -0.28100
C549        C  0.64743648  0.08392011  0.71026634    -0.04200
C550        C  0.66049633  0.08942039  0.73540144     0.08000
C551        C  0.63581088  0.12347032  0.74451488     0.01800
H552        H  0.65647877  0.05863606  0.69705246     0.09400
H553        H  0.63505276  0.13609254  0.76384482     0.08500
N554        N  0.55659581  0.13825725  0.63729033    -0.35300
N555        N  0.52687806  0.16814460  0.63587755    -0.27500
C556        C  0.51101511  0.16796392  0.61202357    -0.02700
C557        C  0.53184871  0.13632557  0.59786220     0.05900
C558        C  0.56044192  0.11828956  0.61452978     0.04000
H559        H  0.48482181  0.18783761  0.60596236     0.09100
H560        H  0.58119029  0.09122313  0.61074266     0.07900
N561        N  0.63360840  0.98817812  0.79695449    -0.26500
N562        N  0.61124408  0.98166266  0.77598120    -0.34300
C563        C  0.62664592  0.00710254  0.75741343     0.01900
C564        C  0.66001514  0.03147995  0.76703312     0.07900
C565        C  0.66391372  0.01765754  0.79214124    -0.05200
H566        H  0.61521947  0.00701087  0.73795520     0.08600
H567        H  0.68826176  0.02644431  0.80565163     0.09800
Cu568      Cu  0.55975843  0.43276587  0.77236473     0.44200
Cu569      Cu  0.62054323  0.45070447  0.83044773     0.42000
Cu570      Cu  0.53655071  0.37166809  0.82930390     0.43900
N571        N  0.01786311  0.38757677  0.77615219    -0.33900
N572        N  0.01160880  0.36386011  0.79665720    -0.28100
C573        C  0.98391099  0.33238243  0.79114996    -0.04200
C574        C  0.97050105  0.33713636  0.76606263     0.08000
C575        C  0.99374690  0.37205855  0.75708480     0.01800
H576        H  0.97585128  0.30694024  0.80427271     0.09400
H577        H  0.99378409  0.38464536  0.73785014     0.08500
N578        N  0.57078132  0.38726231  0.86182170    -0.35300
N579        N  0.60165803  0.41604900  0.86224797    -0.27500
C580        C  0.61886353  0.41699485  0.88572139    -0.02700
C581        C  0.59768412  0.38729777  0.90079954     0.05900
C582        C  0.56742932  0.36918031  0.88502527     0.04000
H583        H  0.64571134  0.43676029  0.89099447     0.09100
H584        H  0.54568676  0.34345348  0.88977611     0.07900
N585        N  0.88793778  0.38050623  0.70505232    -0.26500
N586        N  0.86248915  0.38393795  0.72516121    -0.34300
C587        C  0.87690436  0.35795840  0.74359364     0.01900
C588        C  0.91279080  0.33625746  0.73451162     0.07900
C589        C  0.91931012  0.35266419  0.71015921    -0.05200
H590        H  0.86295301  0.35584618  0.76253052     0.08600
H591        H  0.94582676  0.34640890  0.69737315     0.09800
Cu592      Cu  0.81161979  0.42667894  0.72676521     0.41600
Cu593      Cu  0.87924902  0.41448222  0.67184133     0.42000
Cu594      Cu  0.79717130  0.49506336  0.67049473     0.43900
N595        N  0.76730697  0.47614276  0.72448586    -0.33900
N596        N  0.76304372  0.50154038  0.70451427    -0.28100
C597        C  0.73427739  0.53216409  0.71020922    -0.04200
C598        C  0.71833887  0.52517841  0.73473847     0.08000
C599        C  0.74099290  0.48980370  0.74325357     0.01800
H600        H  0.72963317  0.06574941  0.69861802     0.09400
H601        H  0.73948328  0.47593208  0.76215753     0.08500
N602        N  0.83484893  0.47924088  0.63898860    -0.35300
N603        N  0.86473500  0.44946908  0.63978051    -0.27500
C604        C  0.88442842  0.44700668  0.61694855    -0.02700
C605        C  0.86618514  0.47657604  0.60089960     0.05900
C606        C  0.83477475  0.49664281  0.61547024     0.04000
H607        H  0.91100399  0.42605077  0.61259398     0.09100
H608        H  0.81430383  0.52273131  0.60978694     0.07900
C609        C  0.94210404  0.30766357  0.75011969    -0.01700
C610        C  0.68923906  0.06054574  0.75126029    -0.01700
O611        O  0.74106830  0.29624692  0.02632059    -0.72100
O612        O  0.69364858  0.37202822  0.97148206    -0.73100
O613        O  0.69564533  0.37414398  0.02626382    -0.61700
O614        O  0.73963448  0.29473993  0.97165993    -0.70100
O615        O  0.67940064  0.25756000  0.97250452    -0.69700
O616        O  0.63579911  0.33639959  0.02782961    -0.60900
O617        O  0.63351491  0.33475514  0.97298999    -0.73500
O618        O  0.68110926  0.25861153  0.02698481    -0.72200
Cu619      Cu  0.71962339  0.33558156  0.99889994     1.04600
Cu620      Cu  0.65531322  0.29565644  0.00014200     1.04300
C621        C  0.71815267  0.26611890  0.03567112     0.94100
C622        C  0.65652977  0.36405697  0.96292166     0.93200
C623        C  0.65935620  0.36669241  0.03637713     0.85400
C624        C  0.71613236  0.26468848  0.96285548     0.91600
O625        O  0.92020029  0.01399922  0.52953966    -0.72100
O626        O  0.99297799  0.06894846  0.47549578    -0.73100
O627        O  0.98399829  0.07655731  0.52985658    -0.61700
O628        O  0.92921188  0.00585216  0.47498041    -0.70100
O629        O  0.88045776  0.05662492  0.47015398    -0.69700
O630        O  0.93485486  0.12713298  0.52568717    -0.60900
O631        O  0.94395831  0.11965277  0.47133399    -0.73500
O632        O  0.87093439  0.06430055  0.52476946    -0.72200
Cu633      Cu  0.95825752  0.03955266  0.50265202     1.04600
Cu634      Cu  0.90582868  0.09366250  0.49779902     1.04300
C635        C  0.88508013  0.03149388  0.53644112     0.94100
C636        C  0.97903855  0.10233031  0.46428215     0.93200
C637        C  0.96729543  0.11208633  0.53709439     0.85400
C638        C  0.89729114  0.02098620  0.46312366     0.91600
N639        N  0.73921724  0.13892726  0.20051440    -0.26500
N640        N  0.75891537  0.14829069  0.22209607    -0.34300
C641        C  0.74187267  0.12464018  0.24098821     0.01900
C642        C  0.70998335  0.09873393  0.23103644     0.07900
C643        C  0.70900451  0.10929486  0.20523860    -0.05200
H644        H  0.75118272  0.12693692  0.26082375     0.08600
H645        H  0.68677735  0.09808341  0.19104573     0.09800
Cu646      Cu  0.80581153  0.19519457  0.22616196     0.44200
Cu647      Cu  0.75231713  0.16814075  0.16563802     0.42000
Cu648      Cu  0.83035250  0.25318440  0.16960988     0.43900
N649        N  0.84859239  0.24640166  0.22551197    -0.33900
N650        N  0.85675045  0.26821252  0.20449685    -0.28100
C651        C  0.88396944  0.30024446  0.20981516    -0.04200
C652        C  0.89487536  0.29809175  0.23547306     0.08000
C653        C  0.87085772  0.26389070  0.24482920     0.01800
H654        H  0.89365039  0.32408824  0.19603342     0.09400
H655        H  0.86949358  0.25278675  0.26437975     0.08500
N656        N  0.80087116  0.23505507  0.13617833    -0.35300
N657        N  0.77173276  0.20460987  0.13444718    -0.27500
C658        C  0.75616329  0.20436240  0.11051709    -0.02700
C659        C  0.77676045  0.23622906  0.09667322     0.05900
C660        C  0.80492488  0.25469940  0.11353318     0.04000
H661        H  0.73049161  0.18390627  0.10416713     0.09100
H662        H  0.82507839  0.28225141  0.11006274     0.07900
N663        N  0.48606664  0.24678282  0.29264451    -0.26500
N664        N  0.51383113  0.24637041  0.27358903    -0.34300
C665        C  0.50159536  0.27536353  0.25616294     0.01900
C666        C  0.46466773  0.29586215  0.26487469     0.07900
C667        C  0.45534385  0.27541790  0.28777633    -0.05200
H668        H  0.51744002  0.27982419  0.23794010     0.08600
H669        H  0.91803390  0.28947308  0.30398991     0.09800
Cu670      Cu  0.56401952  0.20257391  0.27165468     0.44200
Cu671      Cu  0.49098576  0.20863096  0.32446710     0.42000
Cu672      Cu  0.57412711  0.13097054  0.32747160     0.43900
N673        N  0.60566997  0.15052927  0.27368777    -0.33900
N674        N  0.60811044  0.12412276  0.29333099    -0.28100
C675        C  0.63524584  0.09212676  0.28737978    -0.04200
C676        C  0.65234018  0.09928075  0.26315099     0.08000
C677        C  0.63170235  0.13614825  0.25494506     0.01800
H678        H  0.64058017  0.06469996  0.29949722     0.09400
H679        H  0.63451099  0.15072230  0.23627643     0.08500
N680        N  0.53542751  0.14626733  0.35872219    -0.35300
N681        N  0.50458547  0.17487419  0.35710472    -0.27500
C682        C  0.48430526  0.17801576  0.37971748    -0.02700
C683        C  0.50310109  0.15008307  0.39654911     0.05900
C684        C  0.53552776  0.13024972  0.38262906     0.04000
H685        H  0.45720690  0.19859114  0.38347711     0.09100
H686        H  0.55686582  0.10542541  0.38908568     0.07900
N687        N  0.62839197  0.99435472  0.20139429    -0.26500
N688        N  0.59941312  0.99607870  0.21982809    -0.34300
C689        C  0.61248450  0.02401644  0.23784715     0.01900
C690        C  0.65138850  0.04152164  0.23037601     0.07900
C691        C  0.66082411  0.02057624  0.20743796    -0.05200
H692        H  0.59557573  0.02994062  0.25562782     0.08600
H693        H  0.68977159  0.02312303  0.19623477     0.09800
Cu694      Cu  0.55043287  0.45920366  0.22405151     0.44200
Cu695      Cu  0.62202755  0.47087488  0.16789743     0.42000
Cu696      Cu  0.54716647  0.38438666  0.17243160     0.43900
N697        N  0.00133310  0.40653863  0.22540420    -0.33900
N698        N  0.99946508  0.37920225  0.20604347    -0.28100
C699        C  0.97091437  0.34838765  0.21140731    -0.04200
C700        C  0.95196794  0.35726526  0.23498688     0.08000
C701        C  0.97325927  0.39396404  0.24348584     0.01800
H702        H  0.96630495  0.32026172  0.19952932     0.09400
H703        H  0.96992265  0.40918969  0.26205889     0.08500
N704        N  0.58088189  0.39784669  0.13973304    -0.35300
N705        N  0.60866389  0.42943727  0.13744957    -0.27500
C706        C  0.62499848  0.42844853  0.11348725    -0.02700
C707        C  0.60611171  0.39461878  0.10032241     0.05900
C708        C  0.57846762  0.37615225  0.11758183     0.04000
H709        H  0.64911655  0.45021767  0.10642142     0.09100
H710        H  0.55857830  0.34828365  0.11445633     0.07900
N711        N  0.86773254  0.40101866  0.29706042    -0.26500
N712        N  0.84457444  0.40628844  0.27633753    -0.34300
C713        C  0.85983095  0.38044054  0.25769769     0.01900
C714        C  0.89395478  0.35709477  0.26704513     0.07900
C715        C  0.89847135  0.37202755  0.29200934    -0.05200
H716        H  0.84778901  0.37954864  0.23837828     0.08600
H717        H  0.92342737  0.36419695  0.30526208     0.09800
Cu718      Cu  0.79552614  0.45098839  0.27321785     0.44200
Cu719      Cu  0.85781972  0.43421303  0.33123872     0.42000
Cu720      Cu  0.77861330  0.51775985  0.32875483     0.43900
N721        N  0.75200526  0.50151090  0.27440145    -0.33900
N722        N  0.74714145  0.52675571  0.29459714    -0.28100
C723        C  0.71946268  0.55814813  0.28907521    -0.04200
C724        C  0.70437008  0.55171700  0.26441661     0.08000
C725        C  0.72694439  0.51597546  0.25558042     0.01800
H726        H  0.71446116  0.07210809  0.30047269     0.09400
H727        H  0.72614665  0.50226003  0.23652792     0.08500
N728        N  0.81131036  0.50218477  0.36161293    -0.35300
N729        N  0.84031849  0.47155892  0.36272222    -0.27500
C730        C  0.85676222  0.47107644  0.38642129    -0.02700
C731        C  0.83704700  0.50305551  0.40085743     0.05900
C732        C  0.80850784  0.52200632  0.38447978     0.04000
H733        H  0.88239694  0.45026320  0.39223731     0.09100
H734        H  0.78832480  0.54937802  0.38858912     0.07900
C735        C  0.92333920  0.32801854  0.25117315    -0.01700
C736        C  0.68053628  0.06974598  0.24668820    -0.01700
C737        C  0.00207996  0.11893935  0.44174715    -0.15600
C738        C  0.48721347  0.14149769  0.42266277    -0.30800
H739        H  0.53354568  0.09577558  0.43264735     0.13400
H740        H  0.45811287  0.15783335  0.42846015     0.14000
C741        C  0.88210907  0.99831275  0.44001185    -0.15600
C742        C  0.84775494  0.51922014  0.42664986    -0.30800
H743        H  0.89802961  0.96873408  0.43440127     0.13400
H744        H  0.83319138  0.54930671  0.43269162     0.14000
C745        C  0.61466632  0.37743541  0.07444938    -0.15600
C746        C  0.64621366  0.39151553  0.05925504    -0.30800
H747        H  0.59624390  0.34953721  0.06865304     0.13400
H748        H  0.66577830  0.41845151  0.06521616     0.14000
C749        C  0.73298133  0.24115122  0.05772318    -0.15600
C750        C  0.76706764  0.25341776  0.07116402    -0.30800
H751        H  0.71279270  0.21535998  0.06462987     0.13400
H752        H  0.78636692  0.28010619  0.06448835     0.14000
C753        C  0.88198102  0.48686216  0.57504112    -0.15600
C754        C  0.86212570  0.01608468  0.55932812    -0.30800
H755        H  0.91082043  0.47061313  0.56869110     0.13400
H756        H  0.83301146  0.03242163  0.56502903     0.14000
C757        C  0.60784299  0.37256864  0.92682215    -0.15600
C758        C  0.64159659  0.38684683  0.94002434    -0.30800
H759        H  0.58881041  0.34634786  0.93436722     0.13400
H760        H  0.66143617  0.41231054  0.93237226     0.14000
C761        C  0.52166766  0.11910134  0.57224266    -0.15600
C762        C  0.98359640  0.13453209  0.55993233    -0.30800
H763        H  0.53656983  0.08894359  0.56665241     0.13400
H764        H  0.96770053  0.16377367  0.56617208     0.14000
C765        C  0.76427873  0.25192630  0.92653868    -0.15600
C766        C  0.73005662  0.23983790  0.94021350    -0.30800
H767        H  0.78434418  0.27780966  0.93352728     0.13400
H768        H  0.70930378  0.21462797  0.93316464     0.14000
N769        N  0.74174316  0.62825738  0.79726221    -0.26500
N770        N  0.76817396  0.63077855  0.77749685    -0.34300
C771        C  0.75475164  0.60378988  0.75908137     0.01900
C772        C  0.71849123  0.58237919  0.76757200     0.07900
C773        C  0.71069500  0.60001079  0.79169126    -0.05200
H774        H  0.76944245  0.60113732  0.74034881     0.08600
H775        H  0.68340389  0.59437045  0.80392922     0.09800
Cu776      Cu  0.81891087  0.67393214  0.77442072     0.44200
Cu777      Cu  0.74776009  0.66374546  0.83094091     0.42000
Cu778      Cu  0.82734535  0.74635157  0.82662033     0.43900
N779        N  0.86163023  0.72536022  0.77466050    -0.33900
N780        N  0.86287409  0.75294601  0.79387533    -0.28100
C781        C  0.89003186  0.78479039  0.78829583    -0.04200
C782        C  0.90863534  0.77645152  0.76461390     0.08000
C783        C  0.88869676  0.73888174  0.75630006     0.01800
H784        H  0.89419172  0.81296743  0.80020874     0.09400
H785        H  0.89241364  0.72353856  0.73778390     0.08500
N786        N  0.79510409  0.73211638  0.85969111    -0.35300
N787        N  0.76547251  0.70224528  0.86174810    -0.27500
C788        C  0.75039602  0.70250130  0.88596118    -0.02700
C789        C  0.77202603  0.73402607  0.89955915     0.05900
C790        C  0.80000404  0.75193593  0.88229281     0.04000
H791        H  0.72504389  0.68202877  0.89284319     0.09100
H792        H  0.82148553  0.77848169  0.88566410     0.07900
N793        N  0.49786778  0.73369772  0.70248058    -0.26500
N794        N  0.51989782  0.72719519  0.72352526    -0.34300
C795        C  0.50406013  0.75225764  0.74233344     0.01900
C796        C  0.47064573  0.77640966  0.73286157     0.07900
C797        C  0.46724289  0.76289010  0.70751966    -0.05200
H798        H  0.51534255  0.75216619  0.76182365     0.08600
H799        H  0.93875245  0.77174457  0.69383392     0.09800
Cu800      Cu  0.56844939  0.68231781  0.72702086     0.44200
Cu801      Cu  0.50883181  0.70114786  0.66802813     0.42000
Cu802      Cu  0.58386990  0.61421963  0.67203610     0.43900
N803        N  0.61237685  0.63243534  0.72578777    -0.33900
N804        N  0.61691300  0.60689138  0.70570634    -0.28100
C805        C  0.64554414  0.57631796  0.71097545    -0.04200
C806        C  0.66132299  0.58348654  0.73538503     0.08000
C807        C  0.63843244  0.61887976  0.74434689     0.01800
H808        H  0.65272071  0.54971594  0.69826831     0.09400
H809        H  0.63968324  0.63292059  0.76330673     0.08500
N810        N  0.55210871  0.62937332  0.63886508    -0.35300
N811        N  0.52518807  0.66177019  0.63702181    -0.27500
C812        C  0.50958861  0.66229921  0.61311091    -0.02700
C813        C  0.52760229  0.62845502  0.59933640     0.05900
C814        C  0.55421008  0.60831097  0.61635107     0.04000
H815        H  0.48546898  0.68441755  0.60670895     0.09100
H816        H  0.57283569  0.57962082  0.61285660     0.07900
N817        N  0.63244054  0.48213155  0.79633979    -0.26500
N818        N  0.61008940  0.47609404  0.77534191    -0.34300
C819        C  0.62631569  0.50098478  0.75675457     0.01900
C820        C  0.66013130  0.52462886  0.76649825     0.07900
C821        C  0.66346690  0.51083024  0.79162205    -0.05200
H822        H  0.61478429  0.50135582  0.73732841     0.08600
H823        H  0.68762262  0.51942976  0.80530012     0.09800
Cu824      Cu  0.56280552  0.93620212  0.77228894     0.44200
Cu825      Cu  0.62361783  0.95576896  0.83111726     0.42000
Cu826      Cu  0.54349327  0.87349482  0.82828169     0.43900
N827        N  0.01215919  0.88672454  0.77372661    -0.33900
N828        N  0.00508672  0.86381086  0.79443827    -0.28100
C829        C  0.97662428  0.83291860  0.78933618    -0.04200
C830        C  0.96376493  0.83693283  0.76414786     0.08000
C831        C  0.98779006  0.87112305  0.75478456     0.01800
H832        H  0.96802571  0.80805397  0.80273278     0.09400
H833        H  0.98856645  0.88270812  0.73532578     0.08500
N834        N  0.57626602  0.88873802  0.86105691    -0.35300
N835        N  0.60607083  0.91855948  0.86232900    -0.27500
C836        C  0.62274122  0.91846115  0.88597074    -0.02700
C837        C  0.60217318  0.88701363  0.90014195     0.05900
C838        C  0.57296252  0.86900684  0.88372786     0.04000
H839        H  0.64874166  0.93877410  0.89198406     0.09100
H840        H  0.55197838  0.84226381  0.88764599     0.07900
N841        N  0.88163989  0.88029847  0.70419589    -0.26500
N842        N  0.85656972  0.88380741  0.72445748    -0.34300
C843        C  0.87063456  0.85680155  0.74247096     0.01900
C844        C  0.90591260  0.83446797  0.73293373     0.07900
C845        C  0.91239845  0.85153784  0.70876905    -0.05200
H846        H  0.85733698  0.85495795  0.76157864     0.08600
H847        H  0.93889528  0.84569234  0.69591368     0.09800
Cu848      Cu  0.80765654  0.92901178  0.72688780     0.41600
Cu849      Cu  0.87413856  0.91604313  0.67170509     0.42000
Cu850      Cu  0.79632138  0.99975295  0.67076976     0.43900
N851        N  0.76563090  0.98074301  0.72478626    -0.33900
N852        N  0.76291707  0.00693841  0.70506264    -0.28100
C853        C  0.73525715  0.03853062  0.71084669    -0.04200
C854        C  0.71796237  0.03123439  0.73501268     0.08000
C855        C  0.73918081  0.99481975  0.74340295     0.01800
H856        H  0.72723391  0.55874900  0.69775838     0.09400
H857        H  0.73641462  0.98028790  0.76208186     0.08500
N858        N  0.83253932  0.98234247  0.63886865    -0.35300
N859        N  0.86119164  0.95139200  0.63969656    -0.27500
C860        C  0.88058166  0.94771563  0.61684597    -0.02700
C861        C  0.86335946  0.97763225  0.60065518     0.05900
C862        C  0.83290185  0.99928271  0.61520809     0.04000
H863        H  0.90622370  0.92557396  0.61255118     0.09100
H864        H  0.81352390  0.02614277  0.60941284     0.07900
C865        C  0.93600117  0.80658611  0.74842781    -0.01700
C866        C  0.68958102  0.55404985  0.75115612    -0.01700
O867        O  0.74348108  0.79522155  0.02626032    -0.72100
O868        O  0.69565861  0.87026833  0.97160348    -0.73100
O869        O  0.69662757  0.87202070  0.02636887    -0.61700
O870        O  0.74196103  0.79311301  0.97152605    -0.70100
O871        O  0.68239125  0.75486593  0.97295085    -0.69700
O872        O  0.63689002  0.83403000  0.02694475    -0.60900
O873        O  0.63619209  0.83183893  0.97220107    -0.73500
O874        O  0.68364462  0.75740029  0.02737693    -0.72200
Cu875      Cu  0.72157065  0.83396805  0.99889151     1.04600
Cu876      Cu  0.65767743  0.79332171  0.99991148     1.04300
C877        C  0.72066936  0.76543021  0.03600164     0.94100
C878        C  0.65899584  0.86180548  0.96260511     0.93200
C879        C  0.65996763  0.86422595  0.03595868     0.85400
C880        C  0.71880118  0.76243283  0.96307757     0.91600
O881        O  0.92140740  0.51492266  0.52975442    -0.72100
O882        O  0.99234072  0.56850859  0.47464002    -0.73100
O883        O  0.98657295  0.57625527  0.52920366    -0.61700
O884        O  0.92692118  0.50711711  0.47516623    -0.70100
O885        O  0.87888310  0.55889798  0.47156079    -0.69700
O886        O  0.93862739  0.62809469  0.52544932    -0.60900
O887        O  0.94413680  0.62012474  0.47087609    -0.73500
O888        O  0.87320865  0.56657877  0.52622957    -0.72200
Cu889      Cu  0.95845811  0.53989644  0.50233169     1.04600
Cu890      Cu  0.90703997  0.59522919  0.49839447     1.04300
C891        C  0.88706208  0.53308915  0.53737051     0.94100
C892        C  0.97856061  0.60191526  0.46340774     0.93200
C893        C  0.97112448  0.61236877  0.53646738     0.85400
C894        C  0.89443168  0.52290790  0.46416167     0.91600
N895        N  0.73767255  0.65068602  0.20324005    -0.26500
N896        N  0.75851128  0.65795826  0.22468777    -0.34300
C897        C  0.74036242  0.63468719  0.24345005     0.01900
C898        C  0.70682578  0.61094195  0.23339376     0.07900
C899        C  0.70568991  0.62305929  0.20786817    -0.05200
H900        H  0.75065074  0.63513709  0.26313820     0.08600
H901        H  0.68253064  0.61397467  0.19369902     0.09800
Cu902      Cu  0.80983924  0.70044614  0.22781660     0.44200
Cu903      Cu  0.75284921  0.67806097  0.16825001     0.42000
Cu904      Cu  0.83935330  0.75294096  0.16896593     0.43900
N905        N  0.85795559  0.74669729  0.22509048    -0.33900
N906        N  0.86797916  0.76604152  0.20346444    -0.28100
C907        C  0.89775796  0.79605474  0.20790703    -0.04200
C908        C  0.90808151  0.79538630  0.23365409     0.08000
C909        C  0.88159634  0.76384980  0.24391202     0.01800
H910        H  0.90900937  0.81815895  0.19353247     0.09400
H911        H  0.87879212  0.75507082  0.26384018     0.08500
N912        N  0.80616792  0.73748858  0.13634819    -0.35300
N913        N  0.77412435  0.71008381  0.13591612    -0.27500
C914        C  0.75719512  0.70980311  0.11236801    -0.02700
C915        C  0.77981261  0.73858626  0.09734233     0.05900
C916        C  0.81060932  0.75536781  0.11317962     0.04000
H917        H  0.72928434  0.69160646  0.10710849     0.09100
H918        H  0.83314926  0.78048239  0.10860455     0.07900
N919        N  0.47752979  0.75628804  0.29313332    -0.26500
N920        N  0.50362381  0.75356541  0.27329741    -0.34300
C921        C  0.49016879  0.78084328  0.25524671     0.01900
C922        C  0.45425043  0.80262794  0.26433223     0.07900
C923        C  0.44670960  0.78478849  0.28820920    -0.05200
H924        H  0.50455617  0.78337696  0.23646175     0.08600
H925        H  0.92981580  0.78770661  0.30122347     0.09800
Cu926      Cu  0.55378500  0.70968421  0.27146942     0.44200
Cu927      Cu  0.48454888  0.72095090  0.32585776     0.42000
Cu928      Cu  0.56968791  0.64435643  0.32908425     0.43900
N929        N  0.59820746  0.66008444  0.27418738    -0.33900
N930        N  0.60322344  0.63603540  0.29469741    -0.28100
C931        C  0.63201810  0.60518876  0.28934098    -0.04200
C932        C  0.64722915  0.61058355  0.26445931     0.08000
C933        C  0.62409101  0.64532690  0.25544404     0.01800
H934        H  0.63943323  0.57946016  0.30231579     0.09400
H935        H  0.62521401  0.65816824  0.23626959     0.08500
N936        N  0.52983991  0.65909980  0.36012726    -0.35300
N937        N  0.49870585  0.68738968  0.35838592    -0.27500
C938        C  0.47748618  0.68967543  0.38071045    -0.02700
C939        C  0.49577242  0.66141393  0.39750758     0.05900
C940        C  0.52905100  0.64236962  0.38387748     0.04000
H941        H  0.44986697  0.70966171  0.38421268     0.09100
H942        H  0.55033103  0.61754346  0.39039947     0.07900
N943        N  0.62634947  0.50694304  0.20162471    -0.26500
N944        N  0.59960682  0.50402863  0.22121068    -0.34300
C945        C  0.61218644  0.53128986  0.23972747     0.01900
C946        C  0.64830713  0.55326506  0.23154638     0.07900
C947        C  0.65691949  0.53552994  0.20750430    -0.05200
H948        H  0.59724874  0.53354939  0.25841230     0.08600
H949        H  0.68468694  0.54091424  0.19563490     0.09800
Cu950      Cu  0.54568447  0.95681682  0.22124229     0.44200
Cu951      Cu  0.62276374  0.95676953  0.16868484     0.42000
Cu952      Cu  0.53563835  0.88159458  0.16903302     0.43900
N953        N  0.01198836  0.90563667  0.22188149    -0.33900
N954        N  0.01261739  0.87694214  0.20314002    -0.28100
C955        C  0.98553370  0.84490542  0.20899761    -0.04200
C956        C  0.96516108  0.85451310  0.23210663     0.08000
C957        C  0.98398517  0.89286083  0.23985595     0.01800
H958        H  0.98228473  0.81594320  0.19766205     0.09400
H959        H  0.97887120  0.90947963  0.25786157     0.08500
N960        N  0.57372932  0.89272154  0.13742406    -0.35300
N961        N  0.60586073  0.92006402  0.13713206    -0.27500
C962        C  0.62416813  0.91935945  0.11375417    -0.02700
C963        C  0.60224533  0.89014883  0.09869742     0.05900
C964        C  0.57061480  0.87392924  0.11433538     0.04000
H965        H  0.65176958  0.93809337  0.10841925     0.09100
H966        H  0.54754735  0.84949332  0.10946269     0.07900
N967        N  0.88006911  0.89854067  0.29447324    -0.26500
N968        N  0.85682031  0.90302044  0.27370952    -0.34300
C969        C  0.87284748  0.87763618  0.25508695     0.01900
C970        C  0.90753839  0.85524758  0.26447196     0.07900
C971        C  0.91158652  0.87034952  0.28945668    -0.05200
H972        H  0.86055611  0.87600114  0.23583903     0.08600
H973        H  0.93648593  0.86285607  0.30281770     0.09800
Cu974      Cu  0.80559347  0.94499287  0.27058244     0.44200
Cu975      Cu  0.86871283  0.93125986  0.32881019     0.42000
Cu976      Cu  0.78436057  0.00909154  0.32667470     0.43900
N977        N  0.75899693  0.99246359  0.27213516    -0.33900
N978        N  0.75228920  0.01651976  0.29265291    -0.28100
C979        C  0.72298895  0.04644941  0.28739095    -0.04200
C980        C  0.70908830  0.04045943  0.26244391     0.08000
C981        C  0.73362575  0.00630521  0.25329749     0.01800
H982        H  0.71253257  0.58475093  0.30182078     0.09400
H983        H  0.73418441  0.99351737  0.23401592     0.08500
N984        N  0.81848890  0.99631833  0.35935740    -0.35300
N985        N  0.84946171  0.96772375  0.36046141    -0.27500
C986        C  0.86596141  0.96855174  0.38417639    -0.02700
C987        C  0.84417063  0.99925790  0.39856656     0.05900
C988        C  0.81446581  0.01612665  0.38215946     0.04000
H989        H  0.89283428  0.94947500  0.39007928     0.09100
H990        H  0.79238627  0.04197292  0.38624984     0.07900
C991        C  0.93688650  0.82571043  0.24876530    -0.01700
C992        C  0.67669676  0.58156182  0.24840707    -0.01700
C993        C  0.00128349  0.61742276  0.44050961    -0.15600
C994        C  0.47874001  0.65205788  0.42328535    -0.30800
H995        H  0.52165642  0.60255105  0.43216692     0.13400
H996        H  0.45053510  0.66969567  0.42933290     0.14000
C997        C  0.87697930  0.50059683  0.44154542    -0.15600
C998        C  0.85329095  0.01601229  0.42447104    -0.30800
H999        H  0.89171338  0.47057667  0.43561115     0.13400
H1000       H  0.83738748  0.04555414  0.43023194     0.14000
C1001       C  0.61198767  0.87466483  0.07261419    -0.15600
C1002       C  0.64568200  0.88817121  0.05888880    -0.30800
H1003       H  0.59245846  0.84854778  0.06539340     0.13400
H1004       H  0.66584041  0.91373770  0.06610648     0.14000
C1005       C  0.73563870  0.74169841  0.05848196    -0.15600
C1006       C  0.76993581  0.75459259  0.07158170    -0.30800
H1007       H  0.71545573  0.71631525  0.06589523     0.13400
H1008       H  0.78953405  0.78056914  0.06425339     0.14000
C1009       C  0.87954818  0.98677860  0.57472490    -0.15600
C1010       C  0.86465208  0.51727286  0.56034108    -0.30800
H1011       H  0.90869899  0.97058724  0.56887105     0.13400
H1012       H  0.83598494  0.53386485  0.56657790     0.14000
C1013       C  0.61176428  0.87082467  0.92590451    -0.15600
C1014       C  0.64451751  0.88519845  0.93985280    -0.30800
H1015       H  0.59317125  0.84366888  0.93263077     0.13400
H1016       H  0.66397506  0.91156492  0.93296954     0.14000
C1017       C  0.51651941  0.61227573  0.57355759    -0.15600
C1018       C  0.98873142  0.63502949  0.55890094    -0.30800
H1019       H  0.52593457  0.57969640  0.56855045     0.13400
H1020       H  0.97410247  0.66521988  0.56460813     0.14000
C1021       C  0.76453659  0.75061614  0.92563037    -0.15600
C1022       C  0.73232154  0.73727960  0.94050526    -0.30800
H1023       H  0.78381031  0.77775993  0.93167735     0.13400
H1024       H  0.71218693  0.71093260  0.93432134     0.14000
loop_ 
_geom_bond_atom_site_label_1 
_geom_bond_atom_site_label_2 
_geom_bond_distance 
_geom_bond_site_symmetry_2 
_ccdc_geom_bond_type 
N1            N2   1.322       .  A
N1            C5   1.346       .  A
N1           Cu9   2.083       .  S
N2            C3   1.344       .  A
N2           Cu8   2.084       .  S
C3            C4   1.390       .  A
C3            H6   1.081       .  S
C4            C5   1.391       .  A
C4           C98   1.529       .  S
C5            H7   1.081       .  S
Cu8          N11   2.083       .  S
Cu9          N19   2.083       .  S
Cu10         N12   2.062       .  S
Cu10         N18   2.063       .  S
N11          N12   1.319       .  A
N11          C15   1.346       .  A
N12          C13   1.342       .  A
C13          C14   1.390       .  A
C13          H16   1.081       .  S
C14          C15   1.394       .  A
C14          C97   1.530       .  S
C15          H17   1.082       .  S
N18          N19   1.321       .  A
N18          C22   1.341       .  A
N19          C20   1.349       .  A
C20          C21   1.389       .  A
C20          H23   1.081       .  S
C21          C22   1.379       .  A
C21         C253   1.476       .  S
C22          H24   1.082       .  S
N25          N26   1.321   1_655  A
N25          C29   1.345       .  A
N25         Cu33   2.071   1_655  S
N26          C27   1.344       .  A
N26         Cu32   2.087       .  S
C27          C28   1.391   1_455  A
C27          H30   1.082       .  S
C28          C29   1.390       .  A
C28         C609   1.527       .  S
C29         H543   1.081       .  S
H31         C541   1.080       .  S
Cu32         N35   2.087       .  S
Cu33         N43   2.071       .  S
Cu34         N36   2.068       .  S
Cu34         N42   2.068       .  S
N35          N36   1.320       .  A
N35          C39   1.346       .  A
N36          C37   1.344       .  A
C37          C38   1.391       .  A
C37          H40   1.081       .  S
C38          C39   1.394       .  A
C38          C98   1.532       .  S
C39          H41   1.081       .  S
N42          N43   1.322       .  A
N42          C46   1.342       .  A
N43          C44   1.346       .  A
C44          C45   1.386       .  A
C44          H47   1.081   1_455  S
C45          C46   1.380       .  A
C45         C249   1.474       .  S
C46          H48   1.082       .  S
N49          N50   1.323       .  A
N49          C53   1.347   1_565  A
N49        Cu313   2.090       .  S
N50          C51   1.344   1_565  A
N50        Cu312   2.086       .  S
C51          C52   1.389       .  A
C51          H54   1.082       .  S
C52          C53   1.392       .  A
C52          C98   1.531       .  S
C53          H55   1.081       .  S
Cu56        N306   2.080       .  S
Cu56        N571   2.079       .  S
Cu57         N67   2.081       .  S
Cu57        N305   2.082       .  S
Cu58         N66   2.065       .  S
Cu58        N572   2.065       .  S
N59          N60   1.320       .  A
N59          C63   1.346       .  A
N59        Cu568   2.085       .  S
N60          C61   1.344       .  A
N60        Cu570   2.075       .  S
C61          C62   1.391       .  A
C61          H64   1.080       .  S
C62          C63   1.392       .  A
C62          C97   1.532       .  S
C63          H65   1.082       .  S
N66          N67   1.322       .  A
N66          C70   1.342       .  A
N67          C68   1.347       .  A
C68          C69   1.388       .  A
C68          H71   1.081       .  S
C69          C70   1.380       .  A
C69         C245   1.476       .  S
C70          H72   1.082       .  S
N73          N74   1.320       .  A
N73          C77   1.345       .  A
N73         Cu81   2.070       .  S
N74          C75   1.344       .  A
N74         Cu80   2.088       .  S
C75          C76   1.394       .  A
C75          H78   1.081       .  S
C76          C77   1.390       .  A
C76          C97   1.530       .  S
C77          H79   1.081       .  S
Cu80         N83   2.088       .  S
Cu81         N91   2.071       .  S
Cu82         N84   2.070       .  S
Cu82         N90   2.070       .  S
N83          N84   1.321       .  A
N83          C87   1.347       .  A
N84          C85   1.343       .  A
C85          C86   1.390       .  A
C85         H344   1.081       .  S
C86          C87   1.393       .  A
C86         C354   1.532       .  S
C87          H89   1.082       .  S
H88         C341   1.081       .  S
N90          N91   1.321       .  A
N90          C94   1.346       .  A
N91          C92   1.343       .  A
C92          C93   1.381       .  A
C92          H95   1.082       .  S
C93          C94   1.386       .  A
C93         C241   1.474       .  S
C94          H96   1.081       .  S
C97         C540   1.531       .  S
C98         C342   1.533       .  S
O99        Cu107   2.002       .  S
O99         C109   1.278       .  A
O100       Cu107   2.005   1_556  S
O100        C110   1.276       .  A
O101       Cu107   2.013       .  S
O101        C111   1.277       .  A
O102       Cu107   2.012   1_556  S
O102        C112   1.280       .  A
O103       Cu108   2.009   1_556  S
O103        C112   1.276       .  A
O104       Cu108   2.010       .  S
O104        C111   1.279       .  A
O105       Cu108   2.009   1_556  S
O105        C110   1.279       .  A
O106       Cu108   2.005       .  S
O106        C109   1.276       .  A
Cu107      Cu108   2.374       .  S
C109        C237   1.473       .  S
C110        C246   1.475       .  S
C111        C234   1.479       .  S
C112        C254   1.478       .  S
O113       Cu121   2.005       .  S
O113        C123   1.279       .  A
O114       Cu121   2.009       .  S
O114        C124   1.276       .  A
O115       Cu121   2.010       .  S
O115        C125   1.279       .  A
O116       Cu121   2.012       .  S
O116        C126   1.277       .  A
O117       Cu122   2.003       .  S
O117        C126   1.278       .  A
O118       Cu122   2.007       .  S
O118        C125   1.276       .  A
O119       Cu122   2.008       .  S
O119        C124   1.279       .  A
O120       Cu122   2.012       .  S
O120        C123   1.277       .  A
Cu121      Cu122   2.373       .  S
C123        C242   1.477       .  S
C124        C225   1.477       .  S
C125        C250   1.476       .  S
C126        C229   1.477   1_545  S
N127        N128   1.321       .  A
N127        C131   1.345       .  A
N127       Cu135   2.074       .  S
N128        C129   1.345       .  A
N128       Cu134   2.083       .  S
C129        C130   1.391       .  A
C129        H132   1.082       .  S
C130        C131   1.391       .  A
C130        C224   1.530       .  S
C131        H133   1.081       .  S
Cu134       N137   2.083       .  S
Cu135       N145   2.075       .  S
Cu136       N138   2.062       .  S
Cu136       N144   2.063       .  S
N137        N138   1.320       .  A
N137        C141   1.343       .  A
N138        C139   1.344       .  A
C139        C140   1.389       .  A
C139        H142   1.080       .  S
C140        C141   1.392       .  A
C140        C223   1.527       .  S
C141        H143   1.081       .  S
N144        N145   1.322       .  A
N144        C148   1.342       .  A
N145        C146   1.346       .  A
C146        C147   1.387       .  A
C146        H149   1.081       .  S
C147        C148   1.379       .  A
C147        C238   1.473       .  S
C148        H150   1.082       .  S
N151        N152   1.319   1_655  A
N151        C155   1.344       .  A
N151       Cu159   2.064       .  S
N152        C153   1.344   1_455  A
N152       Cu158   2.081       .  S
C153        C154   1.393       .  A
C153        H156   1.081   1_655  S
C154        C155   1.391       .  A
C154        C735   1.528       .  S
C155        H669   1.081       .  S
H157        C667   1.081       .  S
Cu158       N161   2.081       .  S
Cu159       N169   2.065       .  S
Cu160       N162   2.076       .  S
Cu160       N168   2.075       .  S
N161        N162   1.321       .  A
N161        C165   1.344       .  A
N162        C163   1.345       .  A
C163        C164   1.391       .  A
C163        H166   1.080       .  S
C164        C165   1.390       .  A
C164        C224   1.528       .  S
C165        H167   1.082       .  S
N168        N169   1.322   1_455  A
N168        C172   1.347       .  A
N169        C170   1.341       .  A
C170        C171   1.379   1_655  A
C170        H173   1.082       .  S
C171        C172   1.387       .  A
C171        C226   1.472   1_455  S
C172        H174   1.081       .  S
N175        N176   1.319       .  A
N175        C179   1.342       .  A
N175       Cu439   2.058   1_545  S
N176        C177   1.346       .  A
N176       Cu438   2.086   1_545  S
C177        C178   1.394       .  A
C177        H180   1.082       .  S
C178        C179   1.389       .  A
C178        C224   1.529       .  S
C179        H181   1.081       .  S
Cu182       N432   2.098       .  S
Cu182       N697   2.097       .  S
Cu183       N193   2.085       .  S
Cu183       N431   2.086       .  S
Cu184       N192   2.065       .  S
Cu184       N698   2.065   1_455  S
N185        N186   1.318       .  A
N185        C189   1.345       .  A
N185       Cu694   2.087       .  S
N186        C187   1.342       .  A
N186       Cu696   2.048       .  S
C187        C188   1.386       .  A
C187        H190   1.081       .  S
C188        C189   1.396       .  A
C188        C223   1.527       .  S
C189        H191   1.082       .  S
N192        N193   1.321       .  A
N192        C196   1.342       .  A
N193        C194   1.349       .  A
C194        C195   1.389       .  A
C194        H197   1.081       .  S
C195        C196   1.380       .  A
C195        C233   1.478       .  S
C196        H198   1.082       .  S
N199        N200   1.319       .  A
N199        C203   1.344       .  A
N199       Cu207   2.054       .  S
N200        C201   1.343       .  A
N200       Cu206   2.084       .  S
C201        C202   1.392       .  A
C201        H204   1.082       .  S
C202        C203   1.387       .  A
C202        C223   1.526       .  S
C203        H205   1.080       .  S
Cu206       N209   2.085       .  S
Cu207       N217   2.054       .  S
Cu208       N210   2.098       .  S
Cu208       N216   2.098       .  S
N209        N210   1.322       .  A
N209        C213   1.346       .  A
N210        C211   1.348       .  A
C211        C212   1.395       .  A
C211        H470   1.080       .  S
C212        C213   1.391       .  A
C212        C480   1.535       .  S
C213        H215   1.081       .  S
H214        C467   1.081       .  S
N216        N217   1.322       .  A
N216        C220   1.349       .  A
N217        C218   1.341       .  A
C218        C219   1.377       .  A
C218        H221   1.082       .  S
C219        C220   1.392       .  A
C219        C230   1.478       .  S
C220        H222   1.081       .  S
C223        C666   1.529       .  S
C224        C468   1.529       .  S
C225        C738   1.343       .  D
C225        H739   1.086       .  S
C226        C737   1.342   1_655  D
C226        H228   1.087       .  S
H227        C737   1.085       .  S
C229        C486   1.343   1_565  D
C229        H231   1.086       .  S
C230        C485   1.340       .  D
C230        H232   1.087       .  S
C233        C234   1.344       .  D
C233        H235   1.087       .  S
C234        H236   1.086       .  S
C237        C238   1.342       .  D
C237        H239   1.085       .  S
C238        H240   1.087       .  S
C241        C498   1.346       .  D
C241        H243   1.087       .  S
C242        C497   1.343   1_545  D
C242        H244   1.086       .  S
C245        C246   1.343       .  D
C245        H247   1.087       .  S
C246        H248   1.085       .  S
C249        C762   1.343   1_455  D
C249        H251   1.086       .  S
C250        C761   1.343       .  D
C250        H252   1.085       .  S
C253        C254   1.343       .  D
C253        H255   1.087       .  S
C254        H256   1.086       .  S
N257        N258   1.321       .  A
N257        C261   1.346       .  A
N257       Cu265   2.080       .  S
N258        C259   1.344       .  A
N258       Cu264   2.084       .  S
C259        C260   1.391       .  A
C259        H262   1.081       .  S
C260        C261   1.392       .  A
C260        C354   1.530       .  S
C261        H263   1.081       .  S
Cu264       N267   2.083       .  S
Cu265       N275   2.080       .  S
Cu266       N268   2.061       .  S
Cu266       N274   2.061       .  S
N267        N268   1.319       .  A
N267        C271   1.346       .  A
N268        C269   1.342       .  A
C269        C270   1.390       .  A
C269        H272   1.081       .  S
C270        C271   1.393       .  A
C270        C353   1.529       .  S
C271        H273   1.082       .  S
N274        N275   1.321       .  A
N274        C278   1.343       .  A
N275        C276   1.345       .  A
C276        C277   1.389       .  A
C276        H279   1.081       .  S
C277        C278   1.380       .  A
C277        C509   1.477       .  S
C278        H280   1.082       .  S
N281        N282   1.322   1_655  A
N281        C285   1.347       .  A
N281       Cu289   2.076   1_655  S
N282        C283   1.343       .  A
N282       Cu288   2.084       .  S
C283        C284   1.391   1_455  A
C283        H286   1.082       .  S
C284        C285   1.390       .  A
C284        C865   1.528       .  S
C285        H799   1.080       .  S
H287        C797   1.080       .  S
Cu288       N291   2.084       .  S
Cu289       N299   2.076       .  S
Cu290       N292   2.070       .  S
Cu290       N298   2.070       .  S
N291        N292   1.320       .  A
N291        C295   1.347       .  A
N292        C293   1.343       .  A
C293        C294   1.390       .  A
C293        H296   1.081       .  S
C294        C295   1.393       .  A
C294        C354   1.531       .  S
C295        H297   1.081       .  S
N298        N299   1.321       .  A
N298        C302   1.344       .  A
N299        C300   1.346       .  A
C300        C301   1.388       .  A
C300        H303   1.081   1_455  S
C301        C302   1.382       .  A
C301        C505   1.477       .  S
C302        H304   1.082       .  S
N305        N306   1.322       .  A
N305        C309   1.347       .  A
N306        C307   1.343       .  A
C307        C308   1.389       .  A
C307        H310   1.082       .  S
C308        C309   1.392       .  A
C308        C354   1.528       .  S
C309        H311   1.080       .  S
Cu312       N827   2.084       .  S
Cu313       N323   2.089       .  S
Cu314       N828   2.049       .  S
Cu314       N322   2.048       .  S
N315        N316   1.319       .  A
N315        C319   1.347       .  A
N315       Cu824   2.088       .  S
N316        C317   1.342       .  A
N316       Cu826   2.059       .  S
C317        C318   1.388       .  A
C317        H320   1.080       .  S
C318        C319   1.394       .  A
C318        C353   1.530       .  S
C319        H321   1.081       .  S
N322        N323   1.321       .  A
N322        C326   1.340       .  A
N323        C324   1.348       .  A
C324        C325   1.391       .  A
C324        H327   1.081       .  S
C325        C326   1.376       .  A
C325        C501   1.474       .  S
C326        H328   1.082       .  S
N329        N330   1.319       .  A
N329        C333   1.343       .  A
N329       Cu337   2.057       .  S
N330        C331   1.344       .  A
N330       Cu336   2.088       .  S
C331        C332   1.395       .  A
C331        H334   1.081       .  S
C332        C333   1.388       .  A
C332        C353   1.527       .  S
C333        H335   1.081       .  S
Cu336       N339   2.089       .  S
Cu337       N347   2.058       .  S
Cu338       N340   2.084   1_565  S
Cu338       N346   2.083       .  S
N339        N340   1.322   1_565  A
N339        C343   1.346       .  A
N340        C341   1.345       .  A
C341        C342   1.392       .  A
C342        C343   1.392   1_545  A
C343        H345   1.082       .  S
N346        N347   1.321       .  A
N346        C350   1.348       .  A
N347        C348   1.341       .  A
C348        C349   1.378       .  A
C348        H351   1.082       .  S
C349        C350   1.389       .  A
C349        C497   1.475       .  S
C350        H352   1.081   1_565  S
C353        C796   1.530       .  S
O355       Cu363   1.993       .  S
O355        C365   1.277       .  A
O356       Cu363   1.993   1_556  S
O356        C366   1.274       .  A
O357       Cu363   2.016       .  S
O357        C367   1.280       .  A
O358       Cu363   2.020   1_556  S
O358        C368   1.280       .  A
O359       Cu364   1.993       .  S
O359        C368   1.274       .  A
O360       Cu364   1.992   1_554  S
O360        C367   1.274       .  A
O361       Cu364   2.020       .  S
O361        C366   1.281       .  A
O362       Cu364   2.022   1_554  S
O362        C365   1.279       .  A
Cu363      Cu364   2.374   1_554  S
C365        C493   1.478       .  S
C366        C502   1.474       .  S
C367        C490   1.471       .  S
C368        C510   1.472       .  S
O369       Cu377   1.993       .  S
O369        C379   1.277       .  A
O370       Cu377   2.001       .  S
O370        C380   1.275       .  A
O371       Cu377   2.024       .  S
O371        C381   1.281       .  A
O372       Cu377   2.025       .  S
O372        C382   1.281       .  A
O373       Cu378   1.997       .  S
O373        C382   1.274       .  A
O374       Cu378   1.997       .  S
O374        C381   1.275       .  A
O375       Cu378   2.019       .  S
O375        C380   1.281       .  A
O376       Cu378   2.020       .  S
O376        C379   1.279       .  A
Cu377      Cu378   2.373       .  S
C379        C498   1.477       .  S
C380        C481   1.477       .  S
C381        C506   1.476       .  S
C382        C485   1.476       .  S
N383        N384   1.322       .  A
N383        C387   1.346       .  A
N383       Cu391   2.081       .  S
N384        C385   1.346       .  A
N384       Cu390   2.090       .  S
C385        C386   1.392       .  A
C385        H388   1.082       .  S
C386        C387   1.392       .  A
C386        C480   1.533       .  S
C387        H389   1.080       .  S
Cu390       N393   2.089       .  S
Cu391       N401   2.080       .  S
Cu392       N394   2.065       .  S
Cu392       N400   2.066       .  S
N393        N394   1.320       .  A
N393        C397   1.346       .  A
N394        C395   1.344       .  A
C395        C396   1.389       .  A
C395        H398   1.080       .  S
C396        C397   1.393       .  A
C396        C479   1.530       .  S
C397        H399   1.081       .  S
N400        N401   1.322       .  A
N400        C404   1.342       .  A
N401        C402   1.348       .  A
C402        C403   1.387       .  A
C402        H405   1.081       .  S
C403        C404   1.380       .  A
C403        C494   1.475       .  S
C404        H406   1.082       .  S
N407        N408   1.319   1_655  A
N407        C411   1.342       .  A
N407       Cu415   2.057       .  S
N408        C409   1.346       .  A
N408       Cu414   2.088       .  S
C409        C410   1.395   1_455  A
C409        H412   1.081       .  S
C410        C411   1.388       .  A
C410        C991   1.527       .  S
C411        H925   1.081       .  S
H413        C923   1.081       .  S
Cu414       N417   2.088       .  S
Cu415       N425   2.057   1_655  S
Cu416       N418   2.077       .  S
Cu416       N424   2.077       .  S
N417        N418   1.321       .  A
N417        C421   1.344       .  A
N418        C419   1.346       .  A
C419        C420   1.391       .  A
C419        H422   1.081       .  S
C420        C421   1.392       .  A
C420        C480   1.532       .  S
C421        H423   1.082       .  S
N424        N425   1.321       .  A
N424        C428   1.346       .  A
N425        C426   1.342   1_455  A
C426        C427   1.378   1_655  A
C426        H429   1.082       .  S
C427        C428   1.388       .  A
C427        C482   1.473   1_455  S
C428        H430   1.081       .  S
N431        N432   1.323       .  A
N431        C435   1.346       .  A
N432        C433   1.347       .  A
C433        C434   1.394       .  A
C433        H436   1.081       .  S
C434        C435   1.392       .  A
C434        C480   1.537       .  S
C435        H437   1.081       .  S
Cu438       N953   2.087       .  S
Cu439       N449   2.058       .  S
Cu440       N954   2.081       .  S
Cu440       N448   2.081       .  S
N441        N442   1.319       .  A
N441        C445   1.345       .  A
N441       Cu950   2.086       .  S
N442        C443   1.343       .  A
N442       Cu952   2.063       .  S
C443        C444   1.390       .  A
C443        H446   1.081       .  S
C444        C445   1.394       .  A
C444        C479   1.530       .  S
C445        H447   1.082       .  S
N448        N449   1.322       .  A
N448        C452   1.345       .  A
N449        C450   1.343       .  A
C450        C451   1.378       .  A
C450        H453   1.082       .  S
C451        C452   1.388       .  A
C451        C489   1.474       .  S
C452        H454   1.081       .  S
N455        N456   1.322       .  A
N455        C459   1.346       .  A
N455       Cu463   2.080       .  S
N456        C457   1.344       .  A
N456       Cu462   2.083       .  S
C457        C458   1.390       .  A
C457        H460   1.082       .  S
C458        C459   1.391       .  A
C458        C479   1.529       .  S
C459        H461   1.080       .  S
Cu462       N465   2.082   1_565  S
Cu463       N473   2.080       .  S
Cu464       N466   2.065       .  S
Cu464       N472   2.066       .  S
N465        N466   1.319       .  A
N465        C469   1.344       .  A
N466        C467   1.344       .  A
C467        C468   1.390       .  A
C468        C469   1.393       .  A
C469        H471   1.081       .  S
N472        N473   1.322   1_545  A
N472        C476   1.342       .  A
N473        C474   1.347       .  A
C474        C475   1.388   1_565  A
C474        H477   1.081       .  S
C475        C476   1.380       .  A
C475        C486   1.476       .  S
C476        H478   1.082       .  S
C479        C922   1.528       .  S
C481        C994   1.341       .  D
C481        H995   1.086       .  S
C482        C993   1.342   1_655  D
C482        H484   1.087       .  S
H483        C993   1.085       .  S
C485        H487   1.086       .  S
C486        H488   1.087       .  S
C489        C490   1.340       .  D
C489        H491   1.086       .  S
C490        H492   1.086       .  S
C493        C494   1.346       .  D
C493        H495   1.085       .  S
C494        H496   1.087       .  S
C497        H499   1.087       .  S
C498        H500   1.085       .  S
C501        C502   1.339       .  D
C501        H503   1.087       .  S
C502        H504   1.086       .  S
C505       C1018   1.344   1_455  D
C505        H507   1.086       .  S
C506       C1017   1.342       .  D
C506        H508   1.086       .  S
C509        C510   1.341       .  D
C509        H511   1.087       .  S
C510        H512   1.085       .  S
N513        N514   1.322       .  A
N513        C517   1.346       .  A
N513       Cu521   2.078       .  S
N514        C515   1.344       .  A
N514       Cu520   2.086       .  S
C515        C516   1.392       .  A
C515        H518   1.081       .  S
C516        C517   1.391       .  A
C516        C610   1.530       .  S
C517        H519   1.081       .  S
Cu520       N523   2.084       .  S
Cu521       N531   2.077       .  S
Cu522       N524   2.053       .  S
Cu522       N530   2.053       .  S
N523        N524   1.319       .  A
N523        C527   1.345       .  A
N524        C525   1.341       .  A
C525        C526   1.388       .  A
C525        H528   1.080       .  S
C526        C527   1.394       .  A
C526        C609   1.527       .  S
C527        H529   1.082       .  S
N530        N531   1.321       .  A
N530        C534   1.341       .  A
N531        C532   1.346       .  A
C532        C533   1.388       .  A
C532        H535   1.081       .  S
C533        C534   1.378       .  A
C533        C765   1.472       .  S
C534        H536   1.082       .  S
N537        N538   1.322       .  A
N537        C541   1.348       .  A
N537       Cu545   2.085       .  S
N538        C539   1.343       .  A
N538       Cu544   2.084       .  S
C539        C540   1.390       .  A
C539        H542   1.082       .  S
C540        C541   1.392       .  A
Cu544       N547   2.083       .  S
Cu545       N555   2.085       .  S
Cu546       N548   2.064       .  S
Cu546       N554   2.064       .  S
N547        N548   1.319       .  A
N547        C551   1.346       .  A
N548        C549   1.342       .  A
C549        C550   1.390       .  A
C549        H552   1.080       .  S
C550        C551   1.393       .  A
C550        C610   1.529       .  S
C551        H553   1.082       .  S
N554        N555   1.322       .  A
N554        C558   1.343       .  A
N555        C556   1.347       .  A
C556        C557   1.389       .  A
C556        H559   1.081       .  S
C557        C558   1.380       .  A
C557        C761   1.477       .  S
C558        H560   1.082       .  S
N561        N562   1.322       .  A
N561        C565   1.346   1_565  A
N561       Cu825   2.079       .  S
N562        C563   1.344   1_565  A
N562       Cu824   2.089       .  S
C563        C564   1.391       .  A
C563        H566   1.082       .  S
C564        C565   1.390       .  A
C564        C610   1.530       .  S
C565        H567   1.080       .  S
Cu568       N818   2.086       .  S
Cu569       N817   2.071       .  S
Cu569       N579   2.070       .  S
Cu570       N578   2.075       .  S
N571        N572   1.319       .  A
N571        C575   1.345   1_455  A
N572        C573   1.343   1_455  A
C573        C574   1.390       .  A
C573        H576   1.080       .  S
C574        C575   1.392       .  A
C574        C609   1.529       .  S
C575        H577   1.082       .  S
N578        N579   1.322       .  A
N578        C582   1.344       .  A
N579        C580   1.346       .  A
C580        C581   1.386       .  A
C580        H583   1.081       .  S
C581        C582   1.382       .  A
C581        C757   1.476       .  S
C582        H584   1.082       .  S
N585        N586   1.319       .  A
N585        C589   1.343       .  A
N585       Cu593   2.060       .  S
N586        C587   1.344       .  A
N586       Cu592   2.082       .  S
C587        C588   1.393       .  A
C587        H590   1.081       .  S
C588        C589   1.388       .  A
C588        C609   1.527       .  S
C589        H591   1.081       .  S
Cu592       N595   2.082       .  S
Cu593       N603   2.060       .  S
Cu594       N596   2.077       .  S
Cu594       N602   2.076       .  S
N595        N596   1.322       .  A
N595        C599   1.344       .  A
N596        C597   1.344       .  A
C597        C598   1.391       .  A
C597        H856   1.081       .  S
C598        C599   1.390       .  A
C598        C866   1.529       .  S
C599        H601   1.082       .  S
H600        C853   1.081       .  S
N602        N603   1.321       .  A
N602        C606   1.347       .  A
N603        C604   1.341       .  A
C604        C605   1.378       .  A
C604        H607   1.082       .  S
C605        C606   1.388       .  A
C605        C753   1.473       .  S
C606        H608   1.081       .  S
C610        C854   1.531       .  S
O611       Cu619   2.013   1_554  S
O611        C621   1.280       .  A
O612       Cu619   2.013       .  S
O612        C622   1.278       .  A
O613       Cu619   2.003   1_554  S
O613        C623   1.275       .  A
O614       Cu619   2.000       .  S
O614        C624   1.278       .  A
O615       Cu620   2.006   1_556  S
O615        C624   1.276       .  A
O616       Cu620   2.010       .  S
O616        C623   1.280       .  A
O617       Cu620   2.002   1_556  S
O617        C622   1.278       .  A
O618       Cu620   2.000       .  S
O618        C621   1.275       .  A
Cu619      Cu620   2.374   1_556  S
C621        C749   1.474       .  S
C622        C758   1.476       .  S
C623        C746   1.475       .  S
C624        C766   1.473       .  S
O625       Cu633   2.006       .  S
O625        C635   1.279       .  A
O626       Cu633   2.009       .  S
O626        C636   1.276       .  A
O627       Cu633   2.001       .  S
O627        C637   1.278       .  A
O628       Cu633   2.008       .  S
O628        C638   1.276       .  A
O629       Cu634   2.013       .  S
O629        C638   1.280       .  A
O630       Cu634   2.012       .  S
O630        C637   1.277       .  A
O631       Cu634   1.998       .  S
O631        C636   1.278       .  A
O632       Cu634   2.004       .  S
O632        C635   1.276       .  A
Cu633      Cu634   2.374       .  S
C635        C754   1.475       .  S
C636        C737   1.474   1_655  S
C637        C762   1.475       .  S
C638        C741   1.478   1_545  S
N639        N640   1.323       .  A
N639        C643   1.347       .  A
N639       Cu647   2.081       .  S
N640        C641   1.344       .  A
N640       Cu646   2.087       .  S
C641        C642   1.389       .  A
C641        H644   1.082       .  S
C642        C643   1.391       .  A
C642        C736   1.529       .  S
C643        H645   1.080       .  S
Cu646       N649   2.086       .  S
Cu647       N657   2.080       .  S
Cu648       N650   2.061       .  S
Cu648       N656   2.061       .  S
N649        N650   1.319       .  A
N649        C653   1.346       .  A
N650        C651   1.344       .  A
C651        C652   1.389       .  A
C651        H654   1.080       .  S
C652        C653   1.394       .  A
C652        C735   1.532       .  S
C653        H655   1.082       .  S
N656        N657   1.322       .  A
N656        C660   1.341       .  A
N657        C658   1.347       .  A
C658        C659   1.389       .  A
C658        H661   1.081       .  S
C659        C660   1.378       .  A
C659        C750   1.475       .  S
C660        H662   1.082       .  S
N663        N664   1.318       .  A
N663        C667   1.342       .  A
N663       Cu671   2.058       .  S
N664        C665   1.346       .  A
N664       Cu670   2.087       .  S
C665        C666   1.396       .  A
C665        H668   1.081       .  S
C666        C667   1.389       .  A
Cu670       N673   2.088       .  S
Cu671       N681   2.058       .  S
Cu672       N674   2.081       .  S
Cu672       N680   2.081       .  S
N673        N674   1.323       .  A
N673        C677   1.345       .  A
N674        C675   1.345       .  A
C675        C676   1.391       .  A
C675        H678   1.081       .  S
C676        C677   1.391       .  A
C676        C736   1.532       .  S
C677        H679   1.082       .  S
N680        N681   1.321       .  A
N680        C684   1.349       .  A
N681        C682   1.341       .  A
C682        C683   1.378       .  A
C682        H685   1.082       .  S
C683        C684   1.390       .  A
C683        C738   1.475       .  S
C684        H686   1.081       .  S
N687        N688   1.321       .  A
N687        C691   1.345   1_565  A
N687       Cu951   2.074       .  S
N688        C689   1.345   1_565  A
N688       Cu950   2.087       .  S
C689        C690   1.393       .  A
C689        H692   1.081       .  S
C690        C691   1.390       .  A
C690        C736   1.531       .  S
C691        H693   1.081       .  S
Cu694       N944   2.088       .  S
Cu695       N943   2.089       .  S
Cu695       N705   2.088       .  S
Cu696       N704   2.049       .  S
N697        N698   1.320   1_455  A
N697        C701   1.347   1_455  A
N698        C699   1.343       .  A
C699        C700   1.390       .  A
C699        H702   1.081       .  S
C700        C701   1.396       .  A
C700        C735   1.534       .  S
C701        H703   1.082       .  S
N704        N705   1.321       .  A
N704        C708   1.339       .  A
N705        C706   1.350       .  A
C706        C707   1.390       .  A
C706        H709   1.081       .  S
C707        C708   1.376       .  A
C707        C745   1.473       .  S
C708        H710   1.082       .  S
N711        N712   1.322       .  A
N711        C715   1.346       .  A
N711       Cu719   2.079       .  S
N712        C713   1.345       .  A
N712       Cu718   2.086       .  S
C713        C714   1.390       .  A
C713        H716   1.082       .  S
C714        C715   1.391       .  A
C714        C735   1.529       .  S
C715        H717   1.081       .  S
Cu718       N721   2.085       .  S
Cu719       N729   2.078       .  S
Cu720       N722   2.070       .  S
Cu720       N728   2.070       .  S
N721        N722   1.319       .  A
N721        C725   1.346       .  A
N722        C723   1.344       .  A
C723        C724   1.391       .  A
C723        H982   1.080       .  S
C724        C725   1.394       .  A
C724        C992   1.531       .  S
C725        H727   1.081       .  S
H726        C979   1.080       .  S
N728        N729   1.322       .  A
N728        C732   1.344       .  A
N729        C730   1.347       .  A
C730        C731   1.388       .  A
C730        H733   1.081       .  S
C731        C732   1.381       .  A
C731        C742   1.478       .  S
C732        H734   1.082       .  S
C736        C980   1.530       .  S
C738        H740   1.087       .  S
C741        C998   1.343   1_565  D
C741        H743   1.086       .  S
C742        C997   1.344       .  D
C742        H744   1.086       .  S
C745        C746   1.341       .  D
C745        H747   1.087       .  S
C746        H748   1.086       .  S
C749        C750   1.341       .  D
C749        H751   1.085       .  S
C750        H752   1.087       .  S
C753       C1010   1.342       .  D
C753        H755   1.087       .  S
C754       C1009   1.341   1_545  D
C754        H756   1.086       .  S
C757        C758   1.345       .  D
C757        H759   1.086       .  S
C758        H760   1.085       .  S
C761        H763   1.087       .  S
C762        H764   1.085       .  S
C765        C766   1.342       .  D
C765        H767   1.087       .  S
C766        H768   1.085       .  S
N769        N770   1.323       .  A
N769        C773   1.347       .  A
N769       Cu777   2.082       .  S
N770        C771   1.344       .  A
N770       Cu776   2.092       .  S
C771        C772   1.392       .  A
C771        H774   1.081       .  S
C772        C773   1.391       .  A
C772        C866   1.531       .  S
C773        H775   1.081       .  S
Cu776       N779   2.090       .  S
Cu777       N787   2.081       .  S
Cu778       N780   2.047       .  S
Cu778       N786   2.047       .  S
N779        N780   1.318       .  A
N779        C783   1.347       .  A
N780        C781   1.341       .  A
C781        C782   1.387       .  A
C781        H784   1.081       .  S
C782        C783   1.396       .  A
C782        C865   1.528       .  S
C783        H785   1.082       .  S
N786        N787   1.321       .  A
N786        C790   1.339       .  A
N787        C788   1.347       .  A
C788        C789   1.389       .  A
C788        H791   1.081       .  S
C789        C790   1.375       .  A
C789       C1021   1.471       .  S
C790        H792   1.082       .  S
N793        N794   1.322       .  A
N793        C797   1.347       .  A
N793       Cu801   2.086       .  S
N794        C795   1.343       .  A
N794       Cu800   2.080       .  S
C795        C796   1.389       .  A
C795        H798   1.082       .  S
C796        C797   1.392       .  A
Cu800       N803   2.079       .  S
Cu801       N811   2.086       .  S
Cu802       N804   2.066       .  S
Cu802       N810   2.066       .  S
N803        N804   1.319       .  A
N803        C807   1.346       .  A
N804        C805   1.342       .  A
C805        C806   1.390       .  A
C805        H808   1.081       .  S
C806        C807   1.392       .  A
C806        C866   1.528       .  S
C807        H809   1.081       .  S
N810        N811   1.322       .  A
N810        C814   1.344       .  A
N811        C812   1.347       .  A
C812        C813   1.390       .  A
C812        H815   1.081       .  S
C813        C814   1.381       .  A
C813       C1017   1.480       .  S
C814        H816   1.082       .  S
N817        N818   1.321       .  A
N817        C821   1.345       .  A
N818        C819   1.344       .  A
C819        C820   1.392       .  A
C819        H822   1.081       .  S
C820        C821   1.389       .  A
C820        C866   1.529       .  S
C821        H823   1.080       .  S
Cu825       N835   2.078       .  S
Cu826       N834   2.060       .  S
N827        N828   1.318       .  A
N827        C831   1.346   1_455  A
N828        C829   1.341   1_455  A
C829        C830   1.387       .  A
C829        H832   1.080       .  S
C830        C831   1.394       .  A
C830        C865   1.527       .  S
C831        H833   1.082       .  S
N834        N835   1.321       .  A
N834        C838   1.342       .  A
N835        C836   1.347       .  A
C836        C837   1.388       .  A
C836        H839   1.081       .  S
C837        C838   1.379       .  A
C837       C1013   1.475       .  S
C838        H840   1.082       .  S
N841        N842   1.318       .  A
N841        C845   1.342       .  A
N841       Cu849   2.052       .  S
N842        C843   1.345       .  A
N842       Cu848   2.087       .  S
C843        C844   1.396       .  A
C843        H846   1.081       .  S
C844        C845   1.387       .  A
C844        C865   1.526       .  S
C845        H847   1.080       .  S
Cu848       N851   2.088       .  S
Cu849       N859   2.053       .  S
Cu850       N852   2.080   1_565  S
Cu850       N858   2.079       .  S
N851        N852   1.322   1_565  A
N851        C855   1.345       .  A
N852        C853   1.344       .  A
C853        C854   1.391       .  A
C854        C855   1.391   1_545  A
C855        H857   1.082       .  S
N858        N859   1.321       .  A
N858        C862   1.348       .  A
N859        C860   1.340       .  A
C860        C861   1.377       .  A
C860        H863   1.082       .  S
C861        C862   1.389       .  A
C861       C1009   1.473       .  S
C862        H864   1.081   1_565  S
O867       Cu875   2.005   1_554  S
O867        C877   1.278       .  A
O868       Cu875   2.005       .  S
O868        C878   1.276       .  A
O869       Cu875   2.009   1_554  S
O869        C879   1.277       .  A
O870       Cu875   2.008       .  S
O870        C880   1.280       .  A
O871       Cu876   1.995       .  S
O871        C880   1.274       .  A
O872       Cu876   1.997   1_554  S
O872        C879   1.278       .  A
O873       Cu876   2.009       .  S
O873        C878   1.279       .  A
O874       Cu876   2.006   1_554  S
O874        C877   1.276       .  A
Cu875      Cu876   2.375       .  S
C877       C1005   1.473       .  S
C878       C1014   1.475       .  S
C879       C1002   1.474       .  S
C880       C1022   1.471       .  S
O881       Cu889   2.000       .  S
O881        C891   1.278       .  A
O882       Cu889   2.003       .  S
O882        C892   1.276       .  A
O883       Cu889   2.009       .  S
O883        C893   1.279       .  A
O884       Cu889   2.012       .  S
O884        C894   1.277       .  A
O885       Cu890   2.008       .  S
O885        C894   1.279       .  A
O886       Cu890   2.010       .  S
O886        C893   1.277       .  A
O887       Cu890   2.004       .  S
O887        C892   1.279       .  A
O888       Cu890   2.009       .  S
O888        C891   1.277       .  A
Cu889      Cu890   2.374       .  S
C891       C1010   1.474       .  S
C892        C993   1.473   1_655  S
C893       C1018   1.476       .  S
C894        C997   1.477       .  S
N895        N896   1.322       .  A
N895        C899   1.345       .  A
N895       Cu903   2.075       .  S
N896        C897   1.346       .  A
N896       Cu902   2.094       .  S
C897        C898   1.393       .  A
C897        H900   1.082       .  S
C898        C899   1.390       .  A
C898        C992   1.532       .  S
C899        H901   1.080       .  S
Cu902       N905   2.093       .  S
Cu903       N913   2.074       .  S
Cu904       N906   2.061       .  S
Cu904       N912   2.061       .  S
N905        N906   1.320       .  A
N905        C909   1.346       .  A
N906        C907   1.344       .  A
C907        C908   1.388       .  A
C907        H910   1.080       .  S
C908        C909   1.394       .  A
C908        C991   1.529       .  S
C909        H911   1.082       .  S
N912        N913   1.321       .  A
N912        C916   1.342       .  A
N913        C914   1.345       .  A
C914        C915   1.388       .  A
C914        H917   1.081       .  S
C915        C916   1.380       .  A
C915       C1006   1.475       .  S
C916        H918   1.082       .  S
N919        N920   1.319       .  A
N919        C923   1.342       .  A
N919       Cu927   2.054       .  S
N920        C921   1.345       .  A
N920       Cu926   2.088       .  S
C921        C922   1.395       .  A
C921        H924   1.081       .  S
C922        C923   1.388       .  A
Cu926       N929   2.089       .  S
Cu927       N937   2.054       .  S
Cu928       N930   2.090       .  S
Cu928       N936   2.090       .  S
N929        N930   1.323       .  A
N929        C933   1.346       .  A
N930        C931   1.346       .  A
C931        C932   1.393       .  A
C931        H934   1.080       .  S
C932        C933   1.391       .  A
C932        C992   1.534       .  S
C933        H935   1.082       .  S
N936        N937   1.321       .  A
N936        C940   1.350       .  A
N937        C938   1.340       .  A
C938        C939   1.377       .  A
C938        H941   1.082       .  S
C939        C940   1.391       .  A
C939        C994   1.476       .  S
C940        H942   1.081       .  S
N943        N944   1.322       .  A
N943        C947   1.346       .  A
N944        C945   1.345       .  A
C945        C946   1.392       .  A
C945        H948   1.082       .  S
C946        C947   1.393       .  A
C946        C992   1.534       .  S
C947        H949   1.080       .  S
Cu951       N961   2.073       .  S
Cu952       N960   2.063       .  S
N953        N954   1.321       .  A
N953        C957   1.344   1_455  A
N954        C955   1.347   1_455  A
C955        C956   1.393       .  A
C955        H958   1.081       .  S
C956        C957   1.392       .  A
C956        C991   1.533       .  S
C957        H959   1.082       .  S
N960        N961   1.321       .  A
N960        C964   1.342       .  A
N961        C962   1.346       .  A
C962        C963   1.386       .  A
C962        H965   1.081       .  S
C963        C964   1.380       .  A
C963       C1001   1.472       .  S
C964        H966   1.082       .  S
N967        N968   1.322       .  A
N967        C971   1.347       .  A
N967       Cu975   2.086       .  S
N968        C969   1.344       .  A
N968       Cu974   2.083       .  S
C969        C970   1.390       .  A
C969        H972   1.082       .  S
C970        C971   1.392       .  A
C970        C991   1.532       .  S
C971        H973   1.081       .  S
Cu974       N977   2.082       .  S
Cu975       N985   2.085       .  S
Cu976       N978   2.067       .  S
Cu976       N984   2.067   1_545  S
N977        N978   1.319   1_565  A
N977        C981   1.346   1_565  A
N978        C979   1.342       .  A
C979        C980   1.390       .  A
C980        C981   1.393       .  A
C981        H983   1.081   1_545  S
N984        N985   1.322       .  A
N984        C988   1.343   1_565  A
N985        C986   1.348       .  A
C986        C987   1.389       .  A
C986        H989   1.081       .  S
C987        C988   1.380   1_565  A
C987        C998   1.478   1_565  S
C988        H990   1.082       .  S
C994        H996   1.087       .  S
C997        H999   1.085       .  S
C998       H1000   1.086       .  S
C1001      C1002   1.343       .  D
C1001      H1003   1.087       .  S
C1002      H1004   1.085       .  S
C1005      C1006   1.343       .  D
C1005      H1007   1.085       .  S
C1006      H1008   1.087       .  S
C1009      H1011   1.087       .  S
C1010      H1012   1.085       .  S
C1013      C1014   1.342       .  D
C1013      H1015   1.087       .  S
C1014      H1016   1.085       .  S
C1017      H1019   1.086       .  S
C1018      H1020   1.085       .  S
C1021      C1022   1.339       .  D
C1021      H1023   1.087       .  S
C1022      H1024   1.086       .  S
