geometry optimzed in LAMMPS
_audit_creation_date              2020-11-30 
_audit_creation_method            'lammps2cif' 
_symmetry_space_group_name_H-M    'P1' 
_symmetry_Int_Tables_number       1 
_symmetry_cell_setting            triclinic 
loop_ 
_symmetry_equiv_pos_as_xyz 
  x,y,z 
_cell_length_a                    24.41675517 
_cell_length_b                    40.6443378280566 
_cell_length_c                    34.23256365859599 
_cell_angle_alpha                 90.0215543546277 
_cell_angle_beta                  90.14961281715381 
_cell_angle_gamma                 89.70146130506659 
loop_ 
_atom_site_label 
_atom_site_type_symbol 
_atom_site_fract_x 
_atom_site_fract_y 
_atom_site_fract_z 
_atom_site_charge 
C1          C  0.11223601  0.27842837  0.18950129     0.88800
C2          C  0.11347288  0.24562885  0.16762225    -0.51500
C3          C  0.11488059  0.21893425  0.19183344     0.11700
C4          C  0.11510363  0.22757977  0.23574713     0.22700
C5          C  0.06253377  0.27625746  0.21634173    -0.52200
C6          C  0.06281915  0.24943735  0.24027573     0.11800
C7          C  0.16255333  0.27758203  0.21600419    -0.51700
C8          C  0.16546954  0.25079522  0.23983595     0.12400
H9          H  0.11298062  0.24364349  0.13596540     0.16900
H10         H  0.11631781  0.20578135  0.25528287     0.02600
H11         H  0.02913204  0.29404339  0.21582388     0.17200
H12         H  0.19432120  0.29621544  0.21513992     0.17000
C13         C  0.36769100  0.28219940  0.32599333     0.88800
C14         C  0.41638432  0.28168201  0.29800150    -0.51500
C15         C  0.41756625  0.25514608  0.27357183     0.11700
C16         C  0.36765563  0.23186962  0.27885074     0.22700
C17         C  0.31633757  0.28028946  0.30048999    -0.52200
C18         C  0.31516815  0.25375340  0.27612044     0.11800
C19         C  0.37044394  0.24914810  0.34720798    -0.51700
C20         C  0.37057499  0.22273773  0.32257939     0.12400
H21         H  0.44827480  0.30024549  0.29829555     0.16900
H22         H  0.36767883  0.21029418  0.25893768     0.02600
H23         H  0.28307624  0.29812111  0.30208249     0.17200
H24         H  0.37254120  0.24680436  0.37880064     0.17000
O25         O  0.41993423  0.41071175  0.01052712    -0.55500
C26         C  0.26877695  0.40429178  0.49743059     0.77100
O27         O  0.34563866  0.46927298  0.47264864    -0.56700
C28         C  0.47085170  0.40610087  0.49857090     0.77100
C29         C  0.36828370  0.36066116  0.40143285     0.79500
Cd30       Cd  0.37003962  0.41309702  0.45714760     1.37500
O31         O  0.31597055  0.40908362  0.01206169    -0.55500
O32         O  0.37531340  0.35543884  0.43748374    -0.54300
C33         C  0.36906845  0.48359343  0.44473356     0.79400
O34         O  0.36173759  0.39024920  0.39063259    -0.56700
O35         O  0.27051526  0.40457349  0.46043427    -0.55200
O36         O  0.47010360  0.41035801  0.46201116    -0.55100
O37         O  0.41048064  0.46649012  0.93380194    -0.54300
O38         O  0.05633983  0.39775889  0.50294943    -0.55500
C39         C  0.21899132  0.40751888  0.01982965     0.77100
O40         O  0.07592745  0.46677880  0.07915967    -0.56700
C41         C  0.02352111  0.40680162  0.01907141     0.77100
C42         C  0.11663988  0.35932915  0.11836153     0.79500
Cd43       Cd  0.12076171  0.41348632  0.06499020     1.37500
O44         O  0.17165647  0.40003499  0.50090010    -0.55500
O45         O  0.12101812  0.35528980  0.08199526    -0.54300
C46         C  0.11940544  0.48268709  0.08505828     0.79400
O47         O  0.11543197  0.38862236  0.13090754    -0.56700
O48         O  0.22052469  0.40822710  0.05677966    -0.55200
O49         O  0.02223508  0.40538412  0.05596972    -0.55100
O50         O  0.16327854  0.46611931  0.08637405    -0.54300
O51         O  0.41426913  0.09396125  0.01462937    -0.55500
C52         C  0.27861873  0.09441787  0.48841652     0.77100
O53         O  0.38461654  0.10891618  0.37572874    -0.56700
C54         C  0.47421540  0.09524895  0.49245597     0.77100
C55         C  0.37733418  0.01848490  0.42712929     0.79500
Cd56       Cd  0.37820360  0.08811405  0.44412175     1.37500
O57         O  0.30248568  0.10679129  0.00805828    -0.55500
O58         O  0.39879831  0.03399043  0.96482466    -0.54300
C59         C  0.37880768  0.13880477  0.38514092     0.79400
O60         O  0.33376958  0.03532616  0.42724432    -0.56700
O61         O  0.27817828  0.09435000  0.45144548    -0.55200
O62         O  0.47749498  0.09137991  0.45586366    -0.55100
O63         O  0.37379459  0.14510178  0.42105225    -0.54300
O64         O  0.18129556  0.09796863  0.49504337    -0.55500
C65         C  0.01334838  0.09629764  0.02190836     0.77100
O66         O  0.15381359  0.03531406  0.09021296    -0.56700
C67         C  0.20907997  0.09226788  0.01896907     0.77100
C68         C  0.11282982  0.13604318  0.12746335     0.79500
Cd69       Cd  0.11193745  0.08741099  0.06663106     1.37500
O70         O  0.07232523  0.09082365  0.49524593    -0.55500
O71         O  0.10345685  0.14322659  0.09216923    -0.54300
C72         C  0.11044725  0.01877844  0.08628335     0.79400
O73         O  0.12128120  0.10604554  0.13543545    -0.56700
O74         O  0.01216047  0.09098166  0.05829467    -0.55200
O75         O  0.20511183  0.10734128  0.05115943    -0.55100
O76         O  0.06733839  0.03458404  0.07807295    -0.54300
C77         C  0.37432782  0.18972953  0.33775201    -0.11000
C78         C  0.37722214  0.16480491  0.35676695    -0.12500
C79         C  0.36783102  0.33391886  0.37414580    -0.11000
C80         C  0.36774764  0.31066289  0.35231295    -0.12500
C81         C  0.11429470  0.16134218  0.15666930    -0.11000
C82         C  0.11505174  0.18604523  0.17614834    -0.12500
C83         C  0.11318187  0.33159353  0.14393245    -0.11000
C84         C  0.11139064  0.30740886  0.16414699    -0.12500
C85         C  0.46502651  0.24928571  0.24682685    -0.14100
C86         C  0.01531281  0.24273115  0.26651448    -0.29300
H87         H  0.45664965  0.24585346  0.21595852     0.14900
H88         H  0.02291527  0.24249791  0.29775129     0.15500
C89         C  0.26660928  0.24759627  0.25051086    -0.14100
C90         C  0.21491977  0.24504256  0.26491802    -0.29900
H91         H  0.27275455  0.24904012  0.21917792     0.14900
H92         H  0.20880665  0.24190456  0.29606746     0.15500
C93         C  0.11670578  0.28050309  0.68636941     0.88800
C94         C  0.11983912  0.24929927  0.66147975    -0.51500
C95         C  0.12086055  0.22104835  0.68302213     0.11700
C96         C  0.11871439  0.22662396  0.72760106     0.22700
C97         C  0.06590066  0.27607231  0.71177722    -0.52200
C98         C  0.06596554  0.24776989  0.73319087     0.11800
C99         C  0.16584371  0.27819318  0.71403555    -0.51700
C100        C  0.16797011  0.24984643  0.73530552     0.12400
H101        H  0.12108381  0.24948581  0.62974636     0.16900
H102        H  0.11961694  0.20360867  0.74507265     0.02600
H103        H  0.03245832  0.29381376  0.71269267     0.17200
H104        H  0.19701139  0.29711699  0.71612935     0.17000
C105        C  0.36509206  0.27702346  0.82592409     0.88800
C106        C  0.41530439  0.27512166  0.79950061    -0.51500
C107        C  0.41720971  0.24785360  0.77633983     0.11700
C108        C  0.36638980  0.22518953  0.78107004     0.22700
C109        C  0.31528908  0.27473301  0.79900039    -0.52200
C110        C  0.31475108  0.24743381  0.77580022     0.11800
C111        C  0.36553641  0.24464085  0.84868229    -0.51700
C112        C  0.36615277  0.21745037  0.82520766     0.12400
H113        H  0.44744069  0.29353548  0.79965202     0.16900
H114        H  0.36691639  0.20300499  0.76212255     0.02600
H115        H  0.28241584  0.29287711  0.79891686     0.17200
H116        H  0.36504805  0.24328805  0.88038467     0.17000
O117        O  0.42522271  0.40320726  0.51550911    -0.55500
C118        C  0.26900934  0.40748481  0.99643838     0.77100
O119        O  0.32266122  0.46658161  0.93140798    -0.56700
C120        C  0.46544661  0.40790973  0.99310909     0.77100
C121        C  0.36500597  0.35900243  0.89607630     0.79500
Cd122      Cd  0.36577758  0.41343775  0.94987070     1.37500
O123        O  0.31392083  0.40617371  0.51549932    -0.55500
O124        O  0.36955203  0.35513618  0.93248815    -0.54300
C125        C  0.36658550  0.48281557  0.93067655     0.79400
O126        O  0.36100032  0.38826138  0.88363279    -0.56700
O127        O  0.26705510  0.40720697  0.95952023    -0.55200
O128        O  0.46432527  0.40615891  0.95620575    -0.55100
O129        O  0.39167165  0.46525880  0.41946780    -0.54300
O130        O  0.06997304  0.41027256  0.00327285    -0.55500
C131        C  0.21678225  0.40411491  0.51847234     0.77100
O132        O  0.10665119  0.46666462  0.59472805    -0.56700
C133        C  0.01237748  0.40821002  0.51807444     0.77100
C134        C  0.11427405  0.36180612  0.61560780     0.79500
Cd135      Cd  0.11481813  0.41302169  0.55793747     1.37500
O136        O  0.17216999  0.40818599  0.00389307    -0.55500
O137        O  0.10896193  0.35607149  0.57956776    -0.54300
C138        C  0.12073668  0.48348499  0.56521895     0.79400
O139        O  0.11958187  0.39157869  0.62588396    -0.56700
O140        O  0.21480061  0.40998843  0.55478021    -0.55200
O141        O  0.01516298  0.41940644  0.55249648    -0.55100
O142        O  0.13223051  0.46774071  0.53455752    -0.54300
O143        O  0.42657856  0.09750472  0.50670843    -0.55500
C144        C  0.25979129  0.09238504  0.99611257     0.77100
O145        O  0.37948863  0.10669112  0.88571158    -0.56700
C146        C  0.45961229  0.09932080  0.99805415     0.77100
C147        C  0.37045071  0.01874903  0.93993337     0.79500
Cd148      Cd  0.36146001  0.08821901  0.95354996     1.37500
O149        O  0.32502438  0.09283155  0.50491462    -0.55500
O150        O  0.42158094  0.03414221  0.43059979    -0.54300
C151        C  0.36202328  0.13562988  0.89139215     0.79400
O152        O  0.33961597  0.03590091  0.91813387    -0.56700
O153        O  0.26342910  0.07716084  0.96400100    -0.55200
O154        O  0.45893738  0.10191300  0.96122182    -0.55100
O155        O  0.34359039  0.14225148  0.92494005    -0.54300
O156        O  0.16765791  0.07615947  0.00801482    -0.55500
C157        C  0.02765963  0.09751661  0.51233390     0.77100
O158        O  0.08218726  0.03619412  0.56044560    -0.56700
C159        C  0.22775407  0.09480233  0.51110894     0.77100
C160        C  0.12652441  0.13961252  0.61495173     0.79500
Cd161      Cd  0.12788817  0.08944169  0.55575545     1.37500
O162        O  0.06002539  0.10008325  0.00656468    -0.55500
O163        O  0.13140940  0.14636604  0.57911025    -0.54300
C164        C  0.12230866  0.02012200  0.57381761     0.79400
O165        O  0.12252086  0.10956131  0.62401361    -0.56700
O166        O  0.03006154  0.10267194  0.54876984    -0.55200
O167        O  0.22816771  0.09069336  0.54768967    -0.55100
O168        O  0.16434165  0.03647088  0.58288724    -0.54300
C169        C  0.36541114  0.18487770  0.84174569    -0.11000
C170        C  0.36402537  0.16050305  0.86174269    -0.12500
C171        C  0.36443357  0.33109213  0.87040857    -0.11000
C172        C  0.36443332  0.30659808  0.85052482    -0.12500
C173        C  0.12516843  0.16526142  0.64375291    -0.11000
C174        C  0.12347449  0.18932099  0.66432788    -0.12500
C175        C  0.11474728  0.33523485  0.64315621    -0.11000
C176        C  0.11554427  0.31097970  0.66341012    -0.12500
C177        C  0.46532882  0.24176271  0.75038290    -0.14100
C178        C  0.01935168  0.24000113  0.75972762    -0.29300
H179        H  0.45829012  0.24234062  0.71908481     0.14900
H180        H  0.02796531  0.23911475  0.79082534     0.15500
C181        C  0.26701158  0.24051338  0.74965014    -0.14100
C182        C  0.21460893  0.24333073  0.76246565    -0.29900
H183        H  0.27493386  0.23660183  0.71882112     0.14900
H184        H  0.20673265  0.24603948  0.79348886     0.15500
C185        C  0.11529767  0.78112630  0.19062443     0.88800
C186        C  0.11631451  0.74875375  0.16787676    -0.51500
C187        C  0.11578096  0.72157986  0.19128581     0.11700
C188        C  0.11450550  0.72941046  0.23544795     0.22700
C189        C  0.06454404  0.77914552  0.21637392    -0.52200
C190        C  0.06291019  0.75192998  0.23954845     0.11800
C191        C  0.16447714  0.77922140  0.21809088    -0.51700
C192        C  0.16539578  0.75195777  0.24121722     0.12400
H193        H  0.11713311  0.74740081  0.13617863     0.16900
H194        H  0.11417240  0.70726884  0.25443464     0.02600
H195        H  0.03182851  0.79739346  0.21569404     0.17200
H196        H  0.19699683  0.79739807  0.21834138     0.17000
C197        C  0.37087606  0.77900078  0.32309315     0.88800
C198        C  0.41822687  0.77669542  0.29420991    -0.51500
C199        C  0.41733727  0.74926584  0.27132598     0.11700
C200        C  0.36684302  0.72688251  0.27901579     0.22700
C201        C  0.31840514  0.77686494  0.29887766    -0.52200
C202        C  0.31510961  0.74939588  0.27613307     0.11800
C203        C  0.37318507  0.74688742  0.34622080    -0.51700
C204        C  0.37101616  0.71950878  0.32320205     0.12400
H205        H  0.45058969  0.79491711  0.29254037     0.16900
H206        H  0.36514764  0.70455443  0.26036374     0.02600
H207        H  0.28599446  0.79527852  0.30014821     0.17200
H208        H  0.37604475  0.74584701  0.37788745     0.17000
O209        O  0.41782451  0.90939554  0.01332398    -0.55500
C210        C  0.27628906  0.90894957  0.49188697     0.77100
O211        O  0.33190516  0.96682756  0.42945363    -0.56700
C212        C  0.47212730  0.90723758  0.49195344     0.77100
C213        C  0.37441638  0.86001616  0.39368035     0.79500
Cd214      Cd  0.37448642  0.91358603  0.44731618     1.37500
O215        O  0.30740430  0.90038934  0.01226182    -0.55500
O216        O  0.37487481  0.85562039  0.43013320    -0.54300
C217        C  0.37634235  0.98249143  0.42767339     0.79400
O218        O  0.37402720  0.88937203  0.38139878    -0.56700
O219        O  0.27590351  0.90723718  0.45499179    -0.55200
O220        O  0.47341140  0.90889450  0.45507575    -0.55100
O221        O  0.39908331  0.96762550  0.96484995    -0.54300
O222        O  0.07178305  0.90977696  0.49587928    -0.55500
C223        C  0.21196206  0.90990379  0.02000875     0.77100
O224        O  0.15448695  0.96631931  0.08992820    -0.56700
C225        C  0.01795216  0.90594477  0.01843426     0.77100
C226        C  0.11506770  0.86158697  0.11913690     0.79500
Cd227      Cd  0.11401918  0.91449697  0.06479276     1.37500
O228        O  0.17928110  0.90756006  0.49716107    -0.55500
O229        O  0.12123700  0.85700043  0.08295780    -0.54300
C230        C  0.11084670  0.98283566  0.08598611     0.79400
O231        O  0.10826114  0.89087867  0.13082379    -0.56700
O232        O  0.21169922  0.90289026  0.05599575    -0.55200
O233        O  0.01630587  0.90368906  0.05526995    -0.55100
O234        O  0.06821402  0.96705448  0.07723833    -0.54300
O235        O  0.42140942  0.58961388  0.00852940    -0.55500
C236        C  0.27490855  0.60152010  0.49367695     0.77100
O237        O  0.35819531  0.60921520  0.38489434    -0.56700
C238        C  0.47694533  0.59767764  0.49574276     0.77100
C239        C  0.37078941  0.51970878  0.44409505     0.79500
Cd240      Cd  0.37605483  0.59056347  0.45296473     1.37500
O241        O  0.31481819  0.59406241  0.01189481    -0.55500
O242        O  0.40983945  0.53521637  0.93479891    -0.54300
C243        C  0.37512045  0.63817700  0.39067675     0.79400
O244        O  0.34705905  0.53574033  0.47069427    -0.56700
O245        O  0.27648994  0.59926374  0.45682042    -0.55200
O246        O  0.47536747  0.58510209  0.46195870    -0.55100
O247        O  0.39301206  0.64479546  0.42440643    -0.54300
O248        O  0.17742511  0.60092495  0.49691913    -0.55500
C249        C  0.02413368  0.59215347  0.01598411     0.77100
O250        O  0.07539770  0.53501395  0.08167440    -0.56700
C251        C  0.21786388  0.59578920  0.02094903     0.77100
C252        C  0.11657816  0.63871179  0.12577578     0.79500
Cd253      Cd  0.11938634  0.58803296  0.06627682     1.37500
O254        O  0.06204794  0.60697124  0.49989871    -0.55500
O255        O  0.11842346  0.64535168  0.08977629    -0.54300
C256        C  0.11932128  0.51875981  0.08531083     0.79400
O257        O  0.11562330  0.60861054  0.13496399    -0.56700
O258        O  0.02098762  0.59759839  0.05233234    -0.55200
O259        O  0.21971525  0.58991667  0.05721833    -0.55100
O260        O  0.16326131  0.53499638  0.08475451    -0.54300
C261        C  0.37204349  0.68714134  0.34037639    -0.11000
C262        C  0.37328940  0.66301850  0.36087455    -0.12500
C263        C  0.37407846  0.83259529  0.36767488    -0.11000
C264        C  0.37305592  0.80846707  0.34742737    -0.12500
C265        C  0.11587568  0.66451316  0.15454897    -0.11000
C266        C  0.11579234  0.68900137  0.17452163    -0.12500
C267        C  0.11553744  0.83439521  0.14546919    -0.11000
C268        C  0.11567824  0.81038625  0.16591529    -0.12500
C269        C  0.46274725  0.74273657  0.24315595    -0.14100
C270        C  0.01412519  0.74564863  0.26461399    -0.29300
H271        H  0.45305816  0.74372111  0.21223514     0.14900
H272        H  0.01988766  0.74667884  0.29602739     0.15500
C273        C  0.26520761  0.74281986  0.25202211    -0.14100
C274        C  0.21374712  0.74526084  0.26686146    -0.29900
H275        H  0.27072483  0.73954684  0.22082301     0.14900
H276        H  0.20799054  0.74727855  0.29819158     0.15500
C277        C  0.11577845  0.77978301  0.68062193     0.88800
C278        C  0.11779182  0.74710190  0.65858017    -0.51500
C279        C  0.11800515  0.72030094  0.68261561     0.11700
C280        C  0.11620196  0.72879584  0.72661937     0.22700
C281        C  0.06488600  0.77765464  0.70633311    -0.52200
C282        C  0.06409040  0.75084237  0.73024792     0.11800
C283        C  0.16491785  0.77871630  0.70828966    -0.51700
C284        C  0.16627130  0.75191253  0.73216275     0.12400
H285        H  0.11887394  0.74526752  0.62691393     0.16900
H286        H  0.11640474  0.70697470  0.74612736     0.02600
H287        H  0.03191519  0.79572447  0.70549229     0.17200
H288        H  0.19665576  0.79738185  0.70853867     0.17000
C289        C  0.36133961  0.78039237  0.82755195     0.88800
C290        C  0.41258214  0.77886752  0.80209545    -0.51500
C291        C  0.41466132  0.75234598  0.77775226     0.11700
C292        C  0.36319483  0.72996755  0.78066476     0.22700
C293        C  0.31249783  0.77937655  0.79959158    -0.52200
C294        C  0.31235984  0.75281252  0.77526467     0.11800
C295        C  0.36015334  0.74742167  0.84898753    -0.51700
C296        C  0.36107563  0.72091681  0.82447544     0.12400
H297        H  0.44497798  0.79708454  0.80353965     0.16900
H298        H  0.36394425  0.70837298  0.76079259     0.02600
H299        H  0.28003143  0.79778618  0.79956661     0.17200
H300        H  0.35863941  0.74519058  0.88060474     0.17000
O301        O  0.42552034  0.90669559  0.50808204    -0.55500
C302        C  0.26247676  0.90978392  0.99750656     0.77100
O303        O  0.34025815  0.96561368  0.91797229    -0.56700
C304        C  0.46254556  0.90535404  0.99523508     0.77100
C305        C  0.36092941  0.86038470  0.90020810     0.79500
Cd306      Cd  0.36216850  0.91352274  0.95452204     1.37500
O307        O  0.32246079  0.91160047  0.50851734    -0.55500
O308        O  0.35730848  0.85588339  0.93656451    -0.54300
C309        C  0.37067675  0.98281453  0.93988402     0.79400
O310        O  0.36518337  0.88974535  0.88824100    -0.56700
O311        O  0.26343353  0.92001307  0.96267303    -0.55200
O312        O  0.46034034  0.90301984  0.95834207    -0.55100
O313        O  0.41985800  0.96577528  0.43045297    -0.54300
O314        O  0.06447228  0.90984001  0.00296595    -0.55500
C315        C  0.22533981  0.90921627  0.51406320     0.77100
O316        O  0.08142981  0.96882987  0.55967726    -0.56700
C317        C  0.02653773  0.90564192  0.51326149     0.77100
C318        C  0.12115013  0.86092292  0.61009205     0.79500
Cd319      Cd  0.12521109  0.91465380  0.55666816     1.37500
O320        O  0.16677871  0.91802242  0.00456713    -0.55500
O321        O  0.12800409  0.85684166  0.57392439    -0.54300
C322        C  0.12142501  0.98411084  0.57417047     0.79400
O323        O  0.11721641  0.89020661  0.62248875    -0.56700
O324        O  0.22522242  0.91227291  0.55081339    -0.55200
O325        O  0.02761770  0.90452168  0.55021324    -0.55100
O326        O  0.16189969  0.96688874  0.58509750    -0.54300
O327        O  0.43218531  0.60837674  0.50945395    -0.55500
C328        C  0.26747340  0.59581584  0.99689936     0.77100
O329        O  0.36698769  0.60759678  0.87990270    -0.56700
C330        C  0.46435681  0.59939492  0.99159851     0.77100
C331        C  0.36629405  0.51891601  0.93094281     0.79500
Cd332      Cd  0.36391541  0.58861710  0.94905509     1.37500
O333        O  0.32038551  0.60169507  0.51150580    -0.55500
O334        O  0.39692892  0.53635377  0.41908769    -0.54300
C335        C  0.35969159  0.63761894  0.88833190     0.79400
O336        O  0.32210649  0.53515558  0.93136657    -0.56700
O337        O  0.26481971  0.59597075  0.95999829    -0.55200
O338        O  0.46009071  0.60632404  0.95570567    -0.55100
O339        O  0.35352048  0.64466658  0.92400141    -0.54300
O340        O  0.17088004  0.59999599  0.00607303    -0.55500
C341        C  0.01816821  0.59612880  0.51451128     0.77100
O342        O  0.10810333  0.53749214  0.59307063    -0.56700
C343        C  0.22280656  0.60100503  0.51480615     0.77100
C344        C  0.12005011  0.63814604  0.61676964     0.79500
Cd345      Cd  0.12100497  0.59008311  0.55514920     1.37500
O346        O  0.07130149  0.58593742  0.00259134    -0.55500
O347        O  0.10768065  0.64528289  0.58190322    -0.54300
C348        C  0.12275898  0.51952380  0.56469307     0.79400
O349        O  0.13272463  0.60851193  0.62387232    -0.56700
O350        O  0.02120533  0.58433977  0.54862785    -0.55200
O351        O  0.22112370  0.59813534  0.55158998    -0.55100
O352        O  0.13824721  0.53415806  0.53420699    -0.54300
C353        C  0.35998302  0.68789055  0.83986058    -0.11000
C354        C  0.35937299  0.66309773  0.85923569    -0.12500
C355        C  0.36045405  0.83302726  0.87398883    -0.11000
C356        C  0.36047072  0.80910998  0.85329660    -0.12500
C357        C  0.12008068  0.66310039  0.64648976    -0.11000
C358        C  0.11942731  0.68750819  0.66654935    -0.12500
C359        C  0.11789080  0.83317962  0.63557091    -0.11000
C360        C  0.11601247  0.80886724  0.65551283    -0.12500
C361        C  0.46287066  0.74672848  0.75168557    -0.14100
C362        C  0.01681343  0.74493688  0.75687537    -0.29300
H363        H  0.45521486  0.74448772  0.72056995     0.14900
H364        H  0.02505105  0.74433134  0.78802841     0.15500
C365        C  0.26592973  0.74717701  0.74761145    -0.14100
C366        C  0.21300563  0.74653611  0.75971134    -0.29900
H367        H  0.27504599  0.74671041  0.71661399     0.14900
H368        H  0.20392217  0.74525169  0.79067790     0.15500
C369        C  0.61800996  0.28269992  0.18207870     0.88800
C370        C  0.61605002  0.24998074  0.16000040    -0.51500
C371        C  0.61411622  0.22316428  0.18400576     0.11700
C372        C  0.61444415  0.23163203  0.22799993     0.22700
C373        C  0.56769032  0.28231461  0.20861499    -0.52200
C374        C  0.56482265  0.25549361  0.23242769     0.11800
C375        C  0.66779082  0.27969142  0.20908999    -0.51700
C376        C  0.66695023  0.25281467  0.23294634     0.12400
H377        H  0.61618295  0.24814500  0.12832733     0.16900
H378        H  0.61290545  0.20981258  0.24747375     0.02600
H379        H  0.53648475  0.30148882  0.20828933     0.17200
H380        H  0.70128142  0.29720988  0.20909579     0.17000
C381        C  0.86286088  0.27781719  0.32834234     0.88800
C382        C  0.91374266  0.27537502  0.30262601    -0.51500
C383        C  0.91489343  0.24843862  0.27890059     0.11700
C384        C  0.86282732  0.22664549  0.28253749     0.22700
C385        C  0.81371300  0.27685190  0.30067677    -0.52200
C386        C  0.81255925  0.24997510  0.27685550     0.11800
C387        C  0.86106995  0.24522764  0.35049904    -0.51700
C388        C  0.86106431  0.21833479  0.32659679     0.12400
H389        H  0.94666933  0.29326803  0.30350879     0.16900
H390        H  0.86283374  0.20474043  0.26314311     0.02600
H391        H  0.78194513  0.29569351  0.30029054     0.17200
H392        H  0.86028591  0.24351367  0.38217825     0.17000
O393        O  0.92658075  0.40440232  0.01157577    -0.55500
C394        C  0.76650774  0.40887968  0.49535398     0.77100
O395        O  0.82080741  0.46756231  0.43095995    -0.56700
C396        C  0.96125900  0.40877574  0.49596411     0.77100
C397        C  0.86319710  0.35964488  0.39824962     0.79500
Cd398      Cd  0.86388172  0.41476632  0.45015394     1.37500
O399        O  0.81997538  0.41632047  0.00960732    -0.55500
O400        O  0.85840087  0.35643431  0.43471206    -0.54300
C401        C  0.86505370  0.48325444  0.42782315     0.79400
O402        O  0.86795771  0.38857977  0.38499895    -0.56700
O403        O  0.76473266  0.41094524  0.45849302    -0.55200
O404        O  0.95969642  0.39968606  0.46064622    -0.55100
O405        O  0.91655397  0.46346254  0.92584884    -0.54300
O406        O  0.56782945  0.40865020  0.50386629    -0.55500
C407        C  0.72438740  0.40626982  0.01486301     0.77100
O408        O  0.62509277  0.46892228  0.08834858    -0.56700
C409        C  0.51749874  0.40825543  0.01420048     0.77100
C410        C  0.62121009  0.36276611  0.10886827     0.79500
Cd411      Cd  0.62118791  0.41486226  0.05230042     1.37500
O412        O  0.66975361  0.41068314  0.50291163    -0.55500
O413        O  0.62411697  0.35744317  0.07260703    -0.54300
C414        C  0.62379069  0.48565718  0.05702298     0.79400
O415        O  0.61842746  0.39253659  0.11986793    -0.56700
O416        O  0.72095284  0.41758814  0.04921608    -0.55200
O417        O  0.52031992  0.41584926  0.05001890    -0.55100
O418        O  0.62132108  0.46974040  0.02541535    -0.54300
O419        O  0.91682626  0.09124955  0.01362625    -0.55500
C420        C  0.76842875  0.09538562  0.49671429     0.77100
O421        O  0.86212549  0.10621301  0.38535864    -0.56700
C422        C  0.97499900  0.09713301  0.49161798     0.77100
C423        C  0.87104950  0.01796255  0.44709159     0.79500
Cd424      Cd  0.86977606  0.08848933  0.45462676     1.37500
O425        O  0.81238000  0.08718558  0.01202155    -0.55500
O426        O  0.91074549  0.03454932  0.92977895    -0.54300
C427        C  0.86407457  0.13661777  0.39312866     0.79400
O428        O  0.87174868  0.03547783  0.41648807    -0.56700
O429        O  0.76936762  0.08651334  0.46130098    -0.55200
O430        O  0.97112099  0.08757605  0.45654021    -0.55100
O431        O  0.86844256  0.14458342  0.42868651    -0.54300
O432        O  0.67220529  0.08808988  0.50376686    -0.55500
C433        C  0.51111190  0.09978345  0.02002477     0.77100
O434        O  0.59791187  0.03578031  0.03569800    -0.56700
C435        C  0.71621325  0.09614366  0.01828856     0.77100
C436        C  0.61253816  0.13973815  0.11994753     0.79500
Cd437      Cd  0.61390875  0.09057130  0.05936222     1.37500
O438        O  0.57067332  0.09312851  0.50259041    -0.55500
O439        O  0.62538489  0.14612926  0.08506448    -0.54300
C440        C  0.61322292  0.02001187  0.06552457     0.79400
O441        O  0.60044565  0.11020945  0.12776217    -0.56700
O442        O  0.51330801  0.09074089  0.05537103    -0.55200
O443        O  0.71429550  0.08674767  0.05350161    -0.55100
O444        O  0.62838825  0.03682176  0.09480231    -0.54300
C445        C  0.86085745  0.18563751  0.34291885    -0.11000
C446        C  0.86174560  0.16141650  0.36327483    -0.12500
C447        C  0.86321126  0.33139998  0.37331230    -0.11000
C448        C  0.86302876  0.30697481  0.35343649    -0.12500
C449        C  0.61163280  0.16541193  0.14883588    -0.11000
C450        C  0.61222280  0.19028841  0.16810634    -0.12500
C451        C  0.62079991  0.33579376  0.13594032    -0.11000
C452        C  0.61990254  0.31184833  0.15675103    -0.12500
C453        C  0.96293302  0.24199760  0.25294290    -0.14100
C454        C  0.51766786  0.25103604  0.25957680    -0.29300
H455        H  0.95539354  0.24058578  0.22174121     0.14900
H456        H  0.52602019  0.25264731  0.29066315     0.15500
C457        C  0.76615973  0.24500352  0.24891929    -0.14100
C458        C  0.71304764  0.24591027  0.26064056    -0.29900
H459        H  0.77564294  0.24427496  0.21798702     0.14900
H460        H  0.70353983  0.24490535  0.29155907     0.15500
C461        C  0.61622186  0.27964172  0.69030525     0.88800
C462        C  0.61796188  0.24757046  0.66692847    -0.51500
C463        C  0.61890192  0.22009525  0.68987325     0.11700
C464        C  0.61795803  0.22722224  0.73411467     0.22700
C465        C  0.56592431  0.27655628  0.71647010    -0.52200
C466        C  0.56560710  0.24892547  0.73907544     0.11800
C467        C  0.66600955  0.27781591  0.71737020    -0.51700
C468        C  0.66817963  0.25019922  0.73993107     0.12400
H469        H  0.61841086  0.24662791  0.63520504     0.16900
H470        H  0.61872348  0.20477055  0.75259234     0.02600
H471        H  0.53255334  0.29436719  0.71643445     0.17200
H472        H  0.69797171  0.29633690  0.71775124     0.17000
C473        C  0.87171810  0.27763604  0.82449718     0.88800
C474        C  0.92063358  0.27463155  0.79703285    -0.51500
C475        C  0.92007321  0.24716025  0.77416511     0.11700
C476        C  0.86837595  0.22546985  0.78038182     0.22700
C477        C  0.82063701  0.27609751  0.79871940    -0.52200
C478        C  0.81768549  0.24863794  0.77593523     0.11800
C479        C  0.87155592  0.24552966  0.84768764    -0.51700
C480        C  0.86978605  0.21815238  0.82464692     0.12400
H481        H  0.95365731  0.29245983  0.79623733     0.16900
H482        H  0.86695052  0.20312242  0.76174360     0.02600
H483        H  0.78872219  0.29484744  0.79907489     0.17200
H484        H  0.87258606  0.24449481  0.87940839     0.17000
O485        O  0.91723557  0.41963311  0.51067695    -0.55500
C486        C  0.77646415  0.40562573  0.99404428     0.77100
O487        O  0.82982239  0.46475898  0.93596871    -0.56700
C488        C  0.97331780  0.40612715  0.99580558     0.77100
C489        C  0.87531070  0.35845753  0.89578067     0.79500
Cd490      Cd  0.87526644  0.41170491  0.95019983     1.37500
O491        O  0.81338135  0.40826042  0.51123698    -0.55500
O492        O  0.88231005  0.35396029  0.93192420    -0.54300
C493        C  0.87305530  0.48028080  0.92817848     0.79400
O494        O  0.86871413  0.38777488  0.88414139    -0.56700
O495        O  0.77939493  0.39602646  0.95894965    -0.55200
O496        O  0.97463874  0.40870368  0.95902964    -0.55100
O497        O  0.90873952  0.46654361  0.42960270    -0.54300
O498        O  0.56212392  0.40236257  0.99679197    -0.55500
C499        C  0.71659034  0.40874681  0.51867775     0.77100
O500        O  0.66206285  0.46686403  0.58737391    -0.56700
C501        C  0.52184432  0.40656565  0.52066967     0.77100
C502        C  0.61740415  0.36110248  0.61955513     0.79500
Cd503      Cd  0.61966258  0.41454149  0.56469728     1.37500
O504        O  0.68035809  0.39719452  0.99858199    -0.55500
O505        O  0.62279205  0.35657891  0.58331906    -0.54300
C506        C  0.61947384  0.48418104  0.58251984     0.79400
O507        O  0.61361329  0.39057682  0.63128695    -0.56700
O508        O  0.71842308  0.40801808  0.55560244    -0.55200
O509        O  0.52158729  0.40666782  0.55762675    -0.55100
O510        O  0.57619872  0.46894624  0.57391044    -0.54300
O511        O  0.93078214  0.10452878  0.50874809    -0.55500
C512        C  0.76756395  0.09549521  0.99615911     0.77100
O513        O  0.86183031  0.10618698  0.88262812    -0.56700
C514        C  0.96326470  0.09576761  0.99832573     0.77100
C515        C  0.86735509  0.01785562  0.93164982     0.79500
Cd516      Cd  0.86650923  0.08700158  0.95130968     1.37500
O517        O  0.81377646  0.10306788  0.51204536    -0.55500
O518        O  0.86986330  0.03302134  0.47930675    -0.54300
C519        C  0.86713976  0.13626964  0.89125035     0.79400
O520        O  0.82371888  0.03355530  0.93842432    -0.56700
O521        O  0.76881039  0.10167898  0.95993545    -0.55200
O522        O  0.96473791  0.09782696  0.96150229    -0.55100
O523        O  0.87162517  0.14342007  0.92703567    -0.54300
O524        O  0.67133205  0.10464763  0.00261653    -0.55500
C525        C  0.52329939  0.09528715  0.51719708     0.77100
O526        O  0.57675805  0.03488711  0.58344761    -0.56700
C527        C  0.71769403  0.09498279  0.51942877     0.77100
C528        C  0.62062569  0.13752084  0.62435895     0.79500
Cd529      Cd  0.61980891  0.08759274  0.56502989     1.37500
O530        O  0.55599550  0.10699050  0.00379736    -0.55500
O531        O  0.62048548  0.14436876  0.58837516    -0.54300
C532        C  0.62082359  0.01850408  0.58364666     0.79400
O533        O  0.62016244  0.10740049  0.63359181    -0.56700
O534        O  0.52036893  0.09585855  0.55409134    -0.55200
O535        O  0.71768959  0.09992566  0.55593304    -0.55100
O536        O  0.66460801  0.03455861  0.58000556    -0.54300
C537        C  0.86882921  0.18581734  0.84180792    -0.11000
C538        C  0.86795821  0.16157729  0.86206335    -0.12500
C539        C  0.87455967  0.33117400  0.86942889    -0.11000
C540        C  0.87352118  0.30713794  0.84893835    -0.12500
C541        C  0.62095319  0.16320344  0.65306411    -0.11000
C542        C  0.62041882  0.18773113  0.67282542    -0.12500
C543        C  0.61586046  0.33366663  0.64584127    -0.11000
C544        C  0.61545428  0.30938922  0.66604883    -0.12500
C545        C  0.96656414  0.24003900  0.74710808    -0.14100
C546        C  0.51748831  0.24129316  0.76440256    -0.29300
H547        H  0.95785304  0.23966573  0.71601678     0.14900
H548        H  0.52453437  0.23932327  0.79561852     0.15500
C549        C  0.76861204  0.24260587  0.75076822    -0.14100
C550        C  0.71686074  0.24342257  0.76531033    -0.29900
H551        H  0.77478721  0.24145569  0.71942170     0.14900
H552        H  0.71064864  0.24323459  0.79667901     0.15500
C553        C  0.61272966  0.78105836  0.18029217     0.88800
C554        C  0.61630555  0.74950432  0.15617303    -0.51500
C555        C  0.61765944  0.72164090  0.17835774     0.11700
C556        C  0.61532473  0.72802225  0.22286341     0.22700
C557        C  0.56188241  0.77693305  0.20571374    -0.52200
C558        C  0.56224437  0.74905145  0.22789779     0.11800
C559        C  0.66181399  0.77952998  0.20801326    -0.51700
C560        C  0.66427156  0.75165575  0.23006232     0.12400
H561        H  0.61765560  0.74917844  0.12443696     0.16900
H562        H  0.61650157  0.70534284  0.24092494     0.02600
H563        H  0.52832744  0.79461520  0.20617015     0.17200
H564        H  0.69268022  0.79866880  0.20963676     0.17000
C565        C  0.85995349  0.78031517  0.32310911     0.88800
C566        C  0.91081484  0.77848427  0.29729025    -0.51500
C567        C  0.91316463  0.75133826  0.27392918     0.11700
C568        C  0.86207478  0.72882990  0.27770014     0.22700
C569        C  0.81076590  0.77838410  0.29553031    -0.52200
C570        C  0.81069055  0.75124746  0.27201492     0.11800
C571        C  0.85969700  0.74771602  0.34546052    -0.51700
C572        C  0.86092875  0.72071436  0.32170646     0.12400
H573        H  0.94328038  0.79667260  0.29829198     0.16900
H574        H  0.86303977  0.70678480  0.25853093     0.02600
H575        H  0.77798554  0.79658413  0.29524423     0.17200
H576        H  0.85922272  0.74609570  0.37714361     0.17000
O577        O  0.92135981  0.90219320  0.01014221    -0.55500
C578        C  0.76851162  0.90700472  0.49411035     0.77100
O579        O  0.86980354  0.96462417  0.41596034    -0.56700
C580        C  0.97454793  0.90434345  0.49208898     0.77100
C581        C  0.86415282  0.85981239  0.39708241     0.79500
Cd582      Cd  0.87061548  0.91153794  0.45404243     1.37500
O583        O  0.81704019  0.91292998  0.01017267    -0.55500
O584        O  0.86083046  0.85435387  0.43331527    -0.54300
C585        C  0.87147300  0.98193599  0.44680846     0.79400
O586        O  0.87069523  0.88940087  0.38645356    -0.56700
O587        O  0.77090574  0.91707445  0.45917647    -0.55200
O588        O  0.97164861  0.90942173  0.45566857    -0.55100
O589        O  0.91125466  0.96527832  0.92616204    -0.54300
O590        O  0.56898462  0.90763165  0.49912614    -0.55500
C591        C  0.72005766  0.90786117  0.01466988     0.77100
O592        O  0.60045630  0.96950704  0.03321100    -0.56700
C593        C  0.51480809  0.90566813  0.01583515     0.77100
C594        C  0.61408594  0.86201027  0.10959291     0.79500
Cd595      Cd  0.61738815  0.91398879  0.05401671     1.37500
O596        O  0.67262446  0.91656746  0.50019961    -0.55500
O597        O  0.61915979  0.85670660  0.07345629    -0.54300
C598        C  0.61399764  0.98401649  0.06432683     0.79400
O599        O  0.61095188  0.89167273  0.12076261    -0.56700
O600        O  0.71786153  0.91544001  0.05047138    -0.55200
O601        O  0.51756726  0.91308902  0.05170356    -0.55100
O602        O  0.62874442  0.96605039  0.09279100    -0.54300
O603        O  0.92773263  0.59615902  0.00464930    -0.55500
C604        C  0.77226354  0.59802565  0.49470390     0.77100
O605        O  0.87482226  0.60797848  0.37801588    -0.56700
C606        C  0.96680450  0.59562771  0.49232983     0.77100
C607        C  0.86576363  0.51931074  0.42756595     0.79500
Cd608      Cd  0.86802911  0.58856605  0.44684873     1.37500
O609        O  0.82308703  0.59007969  0.00288554    -0.55500
O610        O  0.91735926  0.53225783  0.92232538    -0.54300
C611        C  0.86588089  0.63783219  0.38642834     0.79400
O612        O  0.82230197  0.53593050  0.43142539    -0.56700
O613        O  0.76919085  0.59566873  0.45790869    -0.55200
O614        O  0.96437242  0.60497509  0.45712688    -0.55100
O615        O  0.85815550  0.64466272  0.42198348    -0.54300
O616        O  0.67558947  0.59863420  0.50383636    -0.55500
C617        C  0.51737496  0.60017896  0.01181008     0.77100
O618        O  0.62896399  0.53963916  0.08613139    -0.56700
C619        C  0.72646740  0.59838093  0.00739893     0.77100
C620        C  0.62384329  0.64107550  0.10913573     0.79500
Cd621      Cd  0.62353002  0.59247999  0.04793362     1.37500
O622        O  0.57199398  0.58690429  0.50439564    -0.55500
O623        O  0.62777759  0.64881622  0.07349385    -0.54300
C624        C  0.62446051  0.52176654  0.05595020     0.79400
O625        O  0.62032278  0.61076052  0.11705861    -0.56700
O626        O  0.52292146  0.58873883  0.04593736    -0.55200
O627        O  0.72417434  0.59115352  0.04328970    -0.55100
O628        O  0.62015375  0.53652830  0.02363445    -0.54300
C629        C  0.86280189  0.68798456  0.33787236    -0.11000
C630        C  0.86455505  0.66330504  0.35739048    -0.12500
C631        C  0.86101521  0.83321788  0.36957041    -0.11000
C632        C  0.85944968  0.80953337  0.34835756    -0.12500
C633        C  0.62276569  0.66596229  0.13896093    -0.11000
C634        C  0.62083083  0.68970908  0.16009207    -0.12500
C635        C  0.61218008  0.83515454  0.13642297    -0.11000
C636        C  0.61164897  0.81101909  0.15669775    -0.12500
C637        C  0.96260505  0.74446542  0.24953677    -0.14100
C638        C  0.51592159  0.74162722  0.25491104    -0.29300
H639        H  0.95686224  0.74201330  0.21823506     0.14900
H640        H  0.52542750  0.73933775  0.28576734     0.15500
C641        C  0.76362773  0.74452515  0.24516662    -0.14100
C642        C  0.71088115  0.74601402  0.25756893    -0.29900
H643        H  0.77224872  0.74151424  0.21429041     0.14900
H644        H  0.70227793  0.74765474  0.28859350     0.15500
C645        C  0.61254316  0.78012493  0.68607868     0.88800
C646        C  0.61109894  0.74693503  0.66514705    -0.51500
C647        C  0.61166780  0.72074109  0.69009562     0.11700
C648        C  0.61335099  0.73022458  0.73372995     0.22700
C649        C  0.56346469  0.77968787  0.71365199    -0.52200
C650        C  0.56268335  0.75336251  0.73832473     0.11800
C651        C  0.66356361  0.77861434  0.71192885    -0.51700
C652        C  0.66512593  0.75231974  0.73658095     0.12400
H653        H  0.61050586  0.74432457  0.63355050     0.16900
H654        H  0.61376060  0.70882186  0.75388069     0.02600
H655        H  0.53114840  0.79818475  0.71301502     0.17200
H656        H  0.69647512  0.79647353  0.71024566     0.17000
C657        C  0.86779459  0.77907202  0.82254204     0.88800
C658        C  0.91658220  0.77779931  0.79474160    -0.51500
C659        C  0.91705812  0.75108749  0.77063735     0.11700
C660        C  0.86644426  0.72840408  0.77597559     0.22700
C661        C  0.81659940  0.77755621  0.79695747    -0.52200
C662        C  0.81465715  0.75086810  0.77288615     0.11800
C663        C  0.86939903  0.74616742  0.84418469    -0.51700
C664        C  0.86888024  0.71956053  0.81980635     0.12400
H665        H  0.94898023  0.79605025  0.79483681     0.16900
H666        H  0.86593169  0.70669536  0.75627607     0.02600
H667        H  0.78389701  0.79577789  0.79833612     0.17200
H668        H  0.87140760  0.74406234  0.87580353     0.17000
O669        O  0.92993068  0.89997762  0.50997940    -0.55500
C670        C  0.77171320  0.90750048  0.99332590     0.77100
O671        O  0.82530854  0.96592371  0.93940368    -0.56700
C672        C  0.96806061  0.90608690  0.99490935     0.77100
C673        C  0.86949473  0.85925296  0.89502250     0.79500
Cd674      Cd  0.87039420  0.91265120  0.94946789     1.37500
O675        O  0.81277674  0.89729893  0.50972300    -0.55500
O676        O  0.87466100  0.85478970  0.93128899    -0.54300
C677        C  0.86784318  0.98184235  0.93097323     0.79400
O678        O  0.86492375  0.88863821  0.88316784    -0.56700
O679        O  0.77262790  0.90302593  0.95674474    -0.55200
O680        O  0.96956370  0.91179999  0.95862232    -0.55100
O681        O  0.87319123  0.96668555  0.47884513    -0.54300
O682        O  0.55944541  0.90041124  0.99811503    -0.55500
C683        C  0.71734677  0.90791481  0.51607320     0.77100
O684        O  0.57681747  0.96639741  0.58250803    -0.56700
C685        C  0.52225816  0.90771870  0.51503018     0.77100
C686        C  0.61663180  0.85993975  0.61340446     0.79500
Cd687      Cd  0.61931506  0.91414713  0.56063374     1.37500
O688        O  0.67519445  0.90186533  0.99763649    -0.55500
O689        O  0.61885685  0.85592831  0.57691427    -0.54300
C690        C  0.62084718  0.98252930  0.58279257     0.79400
O691        O  0.61652734  0.88918227  0.62613179    -0.56700
O692        O  0.71631695  0.90126831  0.55219812    -0.55200
O693        O  0.52068742  0.90972711  0.55183537    -0.55100
O694        O  0.66452805  0.96637158  0.57771092    -0.54300
O695        O  0.92326687  0.58440094  0.50697649    -0.55500
C696        C  0.77831669  0.59684875  0.98588425     0.77100
O697        O  0.87379298  0.60574557  0.87373362    -0.56700
C698        C  0.97524823  0.59188159  0.99084915     0.77100
C699        C  0.87357318  0.51631010  0.92681238     0.79500
Cd700      Cd  0.87806063  0.58615183  0.94272824     1.37500
O701        O  0.81983088  0.59803116  0.50947853    -0.55500
O702        O  0.91009227  0.53516310  0.42810008    -0.54300
C703        C  0.87837740  0.63580668  0.88266400     0.79400
O704        O  0.83109150  0.53293555  0.93427326    -0.56700
O705        O  0.77998375  0.60031895  0.94917113    -0.55200
O706        O  0.97833028  0.58635081  0.95453958    -0.55100
O707        O  0.88453066  0.64254890  0.91839616    -0.54300
O708        O  0.68152895  0.60511724  0.99060596    -0.55500
C709        C  0.52776691  0.59792136  0.51854247     0.77100
O710        O  0.66533743  0.53596429  0.58501803    -0.56700
C711        C  0.72284471  0.59841040  0.51898539     0.77100
C712        C  0.62006139  0.63792229  0.62647007     0.79500
Cd713      Cd  0.62498618  0.58980913  0.56510521     1.37500
O714        O  0.56037774  0.61024257  0.99513633    -0.55500
O715        O  0.62513706  0.64574623  0.59095859    -0.54300
C716        C  0.62095018  0.52024994  0.58250753     0.79400
O717        O  0.61832228  0.60755679  0.63444171    -0.56700
O718        O  0.52903248  0.60737527  0.55376464    -0.55200
O719        O  0.72519784  0.59648840  0.55584013    -0.55100
O720        O  0.57826405  0.53704707  0.57613951    -0.54300
C721        C  0.87226348  0.68658848  0.83516889    -0.11000
C722        C  0.87557587  0.66163191  0.85410178    -0.12500
C723        C  0.86885846  0.83186703  0.86879104    -0.11000
C724        C  0.86846846  0.80791470  0.84812969    -0.12500
C725        C  0.61609378  0.66290434  0.65592149    -0.11000
C726        C  0.61325114  0.68762411  0.67525079    -0.12500
C727        C  0.61421764  0.83227005  0.63902800    -0.11000
C728        C  0.61264281  0.80848236  0.65984274    -0.12500
C729        C  0.96420666  0.74489402  0.74385854    -0.14100
C730        C  0.51528432  0.74799187  0.76506862    -0.29300
H731        H  0.95588944  0.74377345  0.71274332     0.14900
H732        H  0.52313719  0.74840023  0.79627102     0.15500
C733        C  0.76561217  0.74489014  0.74767900    -0.14100
C734        C  0.71383146  0.74630002  0.76212608    -0.29900
H735        H  0.77192883  0.74268959  0.71642883     0.14900
H736        H  0.70751483  0.74674252  0.79347662     0.15500
loop_ 
_geom_bond_atom_site_label_1 
_geom_bond_atom_site_label_2 
_geom_bond_distance 
_geom_bond_site_symmetry_2 
_ccdc_geom_bond_type 
C1            C2   1.529       .  S
C1            C7   1.526       .  S
C1            C5   1.527       .  S
C1           C84   1.463       .  S
C2            H9   1.087       .  S
C2            C3   1.366       .  D
C3            C4   1.544       .  S
C3           C82   1.440       .  S
C4            C8   1.560       .  S
C4            C6   1.560       .  S
C4           H10   1.110       .  S
C5           H11   1.087       .  S
C5            C6   1.364       .  D
C6           C86   1.495       .  S
C7           H12   1.087       .  S
C7            C8   1.362       .  D
C8           C90   1.497       .  S
C13          C14   1.529       .  S
C13          C19   1.528       .  S
C13          C17   1.528       .  S
C13          C80   1.466       .  S
C14          H21   1.087       .  S
C14          C15   1.365       .  D
C15          C16   1.558       .  S
C15          C85   1.497       .  S
C16          C20   1.544       .  S
C16          C18   1.559       .  S
C16          H22   1.111       .  S
C17          H23   1.087       .  S
C17          C18   1.364       .  D
C18          C89   1.495       .  S
C19          H24   1.087       .  S
C19          C20   1.365       .  D
C20          C77   1.441       .  S
O25         C120   1.267   1_554  A
O25        Cd122   2.461   1_554  S
C26          O35   1.267       .  A
C26         O123   1.265       .  A
C26         C131   1.461       .  S
O27          C33   1.259       .  A
O27         Cd30   2.416       .  S
C28          O36   1.264       .  A
C28         O117   1.263       .  A
C28         C501   1.455       .  S
C29          O34   1.267       .  A
C29          O32   1.263       .  A
C29          C79   1.433       .  S
Cd30         O36   2.450       .  S
Cd30         O35   2.459       .  S
Cd30         O34   2.467       .  S
Cd30         O32   2.441       .  S
Cd30        O117   2.439       .  S
Cd30        O129   2.541       .  S
Cd30        O123   2.442       .  S
O31         C118   1.266   1_554  A
O31        Cd122   2.461   1_554  S
C33         O129   1.267       .  A
C33         C239   1.469       .  S
O37         C125   1.262       .  A
O37        Cd122   2.484       .  S
O38         C133   1.264       .  A
O38        Cd135   2.442       .  S
C39          O48   1.266       .  A
C39         O136   1.266       .  A
C39         C118   1.462   1_554  S
O40          C46   1.262       .  A
O40         Cd43   2.470       .  S
C41          O49   1.265       .  A
C41         O130   1.266       .  A
C41         C488   1.460   1_454  S
C42          O47   1.266       .  A
C42          O45   1.260       .  A
C42          C83   1.430       .  S
Cd43         O50   2.492       .  S
Cd43         O49   2.449       .  S
Cd43         O48   2.461       .  S
Cd43         O47   2.477       .  S
Cd43         O45   2.436       .  S
Cd43        O130   2.451       .  S
Cd43        O136   2.451       .  S
O44         C131   1.266       .  A
O44        Cd135   2.454       .  S
C46          O50   1.263       .  A
C46         C256   1.466       .  S
O51         C146   1.265   1_554  A
O51        Cd148   2.465   1_554  S
C52          O61   1.266       .  A
C52         O149   1.266       .  A
C52         C159   1.467       .  S
O53          C59   1.264       .  A
O53         Cd56   2.495       .  S
C54          O62   1.265       .  A
C54         O143   1.265       .  A
C54         C525   1.466       .  S
C55          O60   1.262       .  A
C55         O150   1.262       .  A
C55         C217   1.463   1_545  S
Cd56         O63   2.449       .  S
Cd56         O62   2.461       .  S
Cd56         O61   2.468       .  S
Cd56         O60   2.477       .  S
Cd56        O143   2.474       .  S
Cd56        O149   2.463       .  S
Cd56        O150   2.475       .  S
O57         C144   1.265   1_554  A
O57        Cd148   2.475   1_554  S
O58         C147   1.261       .  A
O58        Cd148   2.412       .  S
C59          O63   1.262       .  A
C59          C78   1.436       .  S
O64         C159   1.265       .  A
O64        Cd161   2.482       .  S
C65          O74   1.265       .  A
C65         O162   1.266       .  A
C65         C514   1.464   1_454  S
O66          C72   1.264       .  A
O66         Cd69   2.481       .  S
C67          O75   1.264       .  A
C67         O156   1.264       .  A
C67         C144   1.466   1_554  S
C68          O73   1.265       .  A
C68          O71   1.263       .  A
C68          C81   1.434       .  S
Cd69         O76   2.445       .  S
Cd69         O75   2.478       .  S
Cd69         O74   2.456       .  S
Cd69         O73   2.484       .  S
Cd69         O71   2.439       .  S
Cd69        O156   2.469       .  S
Cd69        O162   2.466       .  S
O70         C157   1.267       .  A
O70        Cd161   2.474       .  S
C72          O76   1.261       .  A
C72         C230   1.461   1_545  S
C77          C78   1.206       .  T
C79          C80   1.205       .  T
C81          C82   1.205       .  T
C83          C84   1.203       .  T
C85          H87   1.085       .  S
C85         C454   1.359       .  D
C86          H88   1.085       .  S
C86         C453   1.360   1_455  D
C89          H91   1.085       .  S
C89          C90   1.361       .  D
C90          H92   1.085       .  S
C93          C94   1.529       .  S
C93          C99   1.529       .  S
C93          C97   1.528       .  S
C93         C176   1.467       .  S
C94         H101   1.087       .  S
C94          C95   1.365       .  D
C95          C96   1.544       .  S
C95         C174   1.441       .  S
C96         C100   1.555       .  S
C96          C98   1.557       .  S
C96         H102   1.111       .  S
C97         H103   1.087       .  S
C97          C98   1.364       .  D
C98         C178   1.493       .  S
C99         H104   1.087       .  S
C99         C100   1.364       .  D
C100        C182   1.491       .  S
C105        C106   1.527       .  S
C105        C111   1.530       .  S
C105        C109   1.527       .  S
C105        C172   1.467       .  S
C106        H113   1.087       .  S
C106        C107   1.363       .  D
C107        C108   1.558       .  S
C107        C177   1.494       .  S
C108        C112   1.543       .  S
C108        C110   1.558       .  S
C108        H114   1.111       .  S
C109        H115   1.087       .  S
C109        C110   1.364       .  D
C110        C181   1.496       .  S
C111        H116   1.087       .  S
C111        C112   1.366       .  D
C112        C169   1.440       .  S
C118        O127   1.265       .  A
O119        C125   1.262       .  A
O119       Cd122   2.479       .  S
C120        O128   1.266       .  A
C120        C409   1.460   1_556  S
C121        O126   1.267       .  A
C121        O124   1.261       .  A
C121        C171   1.435       .  S
Cd122       O128   2.432       .  S
Cd122       O127   2.448       .  S
Cd122       O126   2.490       .  S
Cd122       O124   2.444       .  S
C125        C331   1.467       .  S
C131        O140   1.267       .  A
O132        C138   1.269       .  A
O132       Cd135   2.525       .  S
C133        O141   1.265       .  A
C133        C396   1.458   1_455  S
C134        O139   1.267       .  A
C134        O137   1.262       .  A
C134        C175   1.434       .  S
Cd135       O142   2.404       .  S
Cd135       O141   2.452       .  S
Cd135       O140   2.446       .  S
Cd135       O139   2.486       .  S
Cd135       O137   2.436       .  S
C138        O142   1.261       .  A
C138        C348   1.466       .  S
C144        O153   1.264       .  A
O145        C151   1.264       .  A
O145       Cd148   2.482       .  S
C146        O154   1.265       .  A
C146        C433   1.464   1_556  S
C147        O152   1.266       .  A
C147        C309   1.461   1_545  S
Cd148       O155   2.442       .  S
Cd148       O154   2.460       .  S
Cd148       O153   2.465       .  S
Cd148       O152   2.507       .  S
C151        O155   1.263       .  A
C151        C170   1.434       .  S
C157        O166   1.266       .  A
C157        C422   1.467   1_455  S
O158        C164   1.260       .  A
O158       Cd161   2.446       .  S
C159        O167   1.263       .  A
C160        O165   1.265       .  A
C160        O163   1.263       .  A
C160        C173   1.435       .  S
Cd161       O168   2.503       .  S
Cd161       O167   2.466       .  S
Cd161       O166   2.457       .  S
Cd161       O165   2.479       .  S
Cd161       O163   2.449       .  S
C164        O168   1.264       .  A
C164        C322   1.464   1_545  S
C169        C170   1.205       .  T
C171        C172   1.206       .  T
C173        C174   1.206       .  T
C175        C176   1.205       .  T
C177        H179   1.085       .  S
C177        C546   1.360       .  D
C178        H180   1.085       .  S
C178        C545   1.358   1_455  D
C181        H183   1.085       .  S
C181        C182   1.358       .  D
C182        H184   1.085       .  S
C185        C186   1.529       .  S
C185        C191   1.525       .  S
C185        C189   1.525       .  S
C185        C268   1.460       .  S
C186        H193   1.087       .  S
C186        C187   1.365       .  D
C187        C188   1.545       .  S
C187        C266   1.443       .  S
C188        C192   1.560       .  S
C188        C190   1.560       .  S
C188        H194   1.110       .  S
C189        H195   1.087       .  S
C189        C190   1.362       .  D
C190        C270   1.493       .  S
C191        H196   1.087       .  S
C191        C192   1.362       .  D
C192        C274   1.493       .  S
C197        C198   1.526       .  S
C197        C203   1.528       .  S
C197        C201   1.527       .  S
C197        C264   1.460       .  S
C198        H205   1.087       .  S
C198        C199   1.363       .  D
C199        C200   1.559       .  S
C199        C269   1.494       .  S
C200        C204   1.545       .  S
C200        C202   1.559       .  S
C200        H206   1.110       .  S
C201        H207   1.087       .  S
C201        C202   1.364       .  D
C202        C273   1.495       .  S
C203        H208   1.087       .  S
C203        C204   1.364       .  D
C204        C261   1.441       .  S
O209        C304   1.267   1_554  A
O209       Cd306   2.431   1_554  S
C210        O219   1.265       .  A
C210        O307   1.267       .  A
C210        C315   1.459       .  S
O211        C217   1.262       .  A
O211       Cd214   2.472       .  S
C212        O301   1.266       .  A
C212        O220   1.265       .  A
C212        C685   1.455       .  S
C213        O218   1.265       .  A
C213        O216   1.261       .  A
C213        C263   1.426       .  S
Cd214       O301   2.438       .  S
Cd214       O313   2.468       .  S
Cd214       O220   2.436       .  S
Cd214       O219   2.437       .  S
Cd214       O307   2.455       .  S
Cd214       O218   2.461       .  S
Cd214       O216   2.428       .  S
O215        C302   1.264   1_554  A
O215       Cd306   2.450   1_554  S
C217        O313   1.262       .  A
O221        C309   1.259       .  A
O221       Cd306   2.407       .  S
O222        C317   1.268       .  A
O222       Cd319   2.462       .  S
C223        O232   1.265       .  A
C223        O320   1.264       .  A
C223        C302   1.456   1_554  S
O224        C230   1.263       .  A
O224       Cd227   2.484       .  S
C225        O314   1.265       .  A
C225        O233   1.265       .  A
C225        C672   1.459   1_454  S
C226        O231   1.266       .  A
C226        O229   1.262       .  A
C226        C267   1.426       .  S
Cd227       O314   2.443       .  S
Cd227       O234   2.444       .  S
Cd227       O233   2.449       .  S
Cd227       O232   2.448       .  S
Cd227       O320   2.439       .  S
Cd227       O231   2.461       .  S
Cd227       O229   2.424       .  S
O228        C315   1.265       .  A
O228       Cd319   2.447       .  S
C230        O234   1.261       .  A
O235        C330   1.265   1_554  A
O235       Cd332   2.470   1_554  S
C236        O245   1.266       .  A
C236        O333   1.266       .  A
C236        C343   1.465       .  S
O237        C243   1.265       .  A
O237       Cd240   2.487       .  S
C238        O327   1.265       .  A
C238        O246   1.265       .  A
C238        C709   1.464       .  S
C239        O244   1.260       .  A
C239        O334   1.267       .  A
Cd240       O327   2.477       .  S
Cd240       O247   2.449       .  S
Cd240       O246   2.452       .  S
Cd240       O245   2.459       .  S
Cd240       O333   2.465       .  S
Cd240       O244   2.420       .  S
Cd240       O334   2.539       .  S
O241        C328   1.265   1_554  A
O241       Cd332   2.475   1_554  S
O242        C331   1.262       .  A
O242       Cd332   2.487       .  S
C243        O247   1.263       .  A
C243        C262   1.436       .  S
O248        C343   1.265       .  A
O248       Cd345   2.467       .  S
C249        O258   1.266       .  A
C249        O346   1.265       .  A
C249        C698   1.470   1_454  S
O250        C256   1.263       .  A
O250       Cd253   2.470       .  S
C251        O340   1.265       .  A
C251        O259   1.265       .  A
C251        C328   1.466   1_554  S
C252        O257   1.264       .  A
C252        O255   1.263       .  A
C252        C265   1.439       .  S
Cd253       O340   2.467       .  S
Cd253       O260   2.484       .  S
Cd253       O259   2.472       .  S
Cd253       O258   2.477       .  S
Cd253       O346   2.475       .  S
Cd253       O257   2.497       .  S
Cd253       O255   2.464       .  S
O254        C341   1.265       .  A
O254       Cd345   2.469       .  S
C256        O260   1.263       .  A
C261        C262   1.206       .  T
C263        C264   1.201       .  T
C265        C266   1.207       .  T
C267        C268   1.201       .  T
C269        H271   1.085       .  S
C269        C638   1.359       .  D
C270        H272   1.085       .  S
C270        C637   1.360   1_455  D
C273        H275   1.085       .  S
C273        C274   1.360       .  D
C274        H276   1.085       .  S
C277        C278   1.528       .  S
C277        C283   1.527       .  S
C277        C281   1.527       .  S
C277        C360   1.462       .  S
C278        H285   1.087       .  S
C278        C279   1.365       .  D
C279        C280   1.546       .  S
C279        C358   1.442       .  S
C280        C284   1.557       .  S
C280        C282   1.558       .  S
C280        H286   1.110       .  S
C281        H287   1.087       .  S
C281        C282   1.364       .  D
C282        C362   1.493       .  S
C283        H288   1.087       .  S
C283        C284   1.362       .  D
C284        C366   1.494       .  S
C289        C290   1.528       .  S
C289        C295   1.529       .  S
C289        C293   1.528       .  S
C289        C356   1.462       .  S
C290        H297   1.087       .  S
C290        C291   1.363       .  D
C291        C292   1.559       .  S
C291        C361   1.495       .  S
C292        C296   1.545       .  S
C292        C294   1.557       .  S
C292        H298   1.110       .  S
C293        H299   1.087       .  S
C293        C294   1.363       .  D
C294        C365   1.494       .  S
C295        H300   1.087       .  S
C295        C296   1.365       .  D
C296        C353   1.443       .  S
C302        O311   1.263       .  A
O303        C309   1.267       .  A
O303       Cd306   2.514       .  S
C304        O312   1.267       .  A
C304        C593   1.456   1_556  S
C305        O310   1.267       .  A
C305        O308   1.261       .  A
C305        C355   1.429       .  S
Cd306       O312   2.436       .  S
Cd306       O311   2.441       .  S
Cd306       O310   2.467       .  S
Cd306       O308   2.425       .  S
C315        O324   1.264       .  A
O316        C322   1.261       .  A
O316       Cd319   2.445       .  S
C317        O325   1.266       .  A
C317        C580   1.461   1_455  S
C318        O323   1.267       .  A
C318        O321   1.261       .  A
C318        C359   1.429       .  S
Cd319       O326   2.504       .  S
Cd319       O325   2.430       .  S
Cd319       O324   2.452       .  S
Cd319       O323   2.472       .  S
Cd319       O321   2.424       .  S
C322        O326   1.264       .  A
C328        O337   1.265       .  A
O329        C335   1.266       .  A
O329       Cd332   2.491       .  S
C330        O338   1.265       .  A
C330        C617   1.467   1_556  S
C331        O336   1.262       .  A
Cd332       O339   2.446       .  S
Cd332       O338   2.470       .  S
Cd332       O337   2.466       .  S
Cd332       O336   2.480       .  S
C335        O339   1.263       .  A
C335        C354   1.437       .  S
C341        O350   1.264       .  A
C341        C606   1.465   1_455  S
O342        C348   1.266       .  A
O342       Cd345   2.523       .  S
C343        O351   1.265       .  A
C344        O349   1.266       .  A
C344        O347   1.264       .  A
C344        C357   1.436       .  S
Cd345       O352   2.418       .  S
Cd345       O351   2.471       .  S
Cd345       O350   2.459       .  S
Cd345       O349   2.485       .  S
Cd345       O347   2.443       .  S
C348        O352   1.261       .  A
C353        C354   1.207       .  T
C355        C356   1.203       .  T
C357        C358   1.206       .  T
C359        C360   1.202       .  T
C361        H363   1.085       .  S
C361        C730   1.359       .  D
C362        H364   1.085       .  S
C362        C729   1.358   1_455  D
C365        H367   1.085       .  S
C365        C366   1.358       .  D
C366        H368   1.085       .  S
C369        C370   1.530       .  S
C369        C375   1.530       .  S
C369        C373   1.530       .  S
C369        C452   1.469       .  S
C370        H377   1.087       .  S
C370        C371   1.366       .  D
C371        C372   1.545       .  S
C371        C450   1.444       .  S
C372        C376   1.557       .  S
C372        C374   1.556       .  S
C372        H378   1.111       .  S
C373        H379   1.087       .  S
C373        C374   1.364       .  D
C374        C454   1.493       .  S
C375        H380   1.087       .  S
C375        C376   1.364       .  D
C376        C458   1.495       .  S
C381        C382   1.527       .  S
C381        C387   1.527       .  S
C381        C385   1.527       .  S
C381        C448   1.463       .  S
C382        H389   1.087       .  S
C382        C383   1.363       .  D
C383        C384   1.558       .  S
C383        C453   1.495       .  S
C384        C388   1.547       .  S
C384        C386   1.559       .  S
C384        H390   1.110       .  S
C385        H391   1.087       .  S
C385        C386   1.363       .  D
C386        C457   1.495       .  S
C387        H392   1.087       .  S
C387        C388   1.365       .  D
C388        C445   1.442       .  S
O393        C488   1.266   1_554  A
O393       Cd490   2.461   1_554  S
C394        O403   1.265       .  A
C394        O491   1.266       .  A
C394        C499   1.459       .  S
O395        C401   1.262       .  A
O395       Cd398   2.473       .  S
C396        O485   1.266       .  A
C396        O404   1.265       .  A
C397        O402   1.267       .  A
C397        O400   1.261       .  A
C397        C447   1.430       .  S
Cd398       O485   2.453       .  S
Cd398       O497   2.480       .  S
Cd398       O404   2.441       .  S
Cd398       O403   2.444       .  S
Cd398       O491   2.445       .  S
Cd398       O402   2.473       .  S
Cd398       O400   2.433       .  S
O399        C486   1.266   1_554  A
O399       Cd490   2.451   1_554  S
C401        O497   1.263       .  A
C401        C607   1.466       .  S
O405        C493   1.263       .  A
O405       Cd490   2.483       .  S
O406        C501   1.266       .  A
O406       Cd503   2.446       .  S
C407        O416   1.265       .  A
C407        O504   1.266   1_554  A
C407        C486   1.459   1_554  S
O408        C414   1.270       .  A
O408       Cd411   2.522       .  S
C409        O498   1.265   1_554  A
C409        O417   1.266       .  A
C410        O415   1.269       .  A
C410        O413   1.262       .  A
C410        C451   1.436       .  S
Cd411       O498   2.437   1_554  S
Cd411       O418   2.413       .  S
Cd411       O417   2.464       .  S
Cd411       O416   2.442       .  S
Cd411       O504   2.447   1_554  S
Cd411       O415   2.486       .  S
Cd411       O413   2.436       .  S
O412        C499   1.265       .  A
O412       Cd503   2.451       .  S
C414        O418   1.262       .  A
C414        C624   1.468       .  S
O419        C514   1.265   1_554  A
O419       Cd516   2.465   1_554  S
C420        O429   1.265       .  A
C420        O517   1.265       .  A
C420        C527   1.464       .  S
O421        C427   1.265       .  A
O421       Cd424   2.485       .  S
C422        O511   1.265       .  A
C422        O430   1.265       .  A
C423        O428   1.267       .  A
C423        O518   1.261       .  A
C423        C585   1.464   1_545  S
Cd424       O511   2.464       .  S
Cd424       O431   2.447       .  S
Cd424       O430   2.475       .  S
Cd424       O429   2.465       .  S
Cd424       O517   2.468       .  S
Cd424       O428   2.519       .  S
Cd424       O518   2.408       .  S
O425        C512   1.265   1_554  A
O425       Cd516   2.466   1_554  S
O426        C515   1.263       .  A
O426       Cd516   2.497       .  S
C427        O431   1.264       .  A
C427        C446   1.436       .  S
O432        C527   1.265       .  A
O432       Cd529   2.460       .  S
C433        O442   1.266       .  A
C433        O530   1.266       .  A
O434        C440   1.261       .  A
O434       Cd437   2.403       .  S
C435        O524   1.265       .  A
C435        O443   1.266       .  A
C435        C512   1.467   1_554  S
C436        O441   1.266       .  A
C436        O439   1.263       .  A
C436        C449   1.438       .  S
Cd437       O524   2.468       .  S
Cd437       O444   2.522       .  S
Cd437       O443   2.464       .  S
Cd437       O442   2.460       .  S
Cd437       O530   2.458       .  S
Cd437       O441   2.496       .  S
Cd437       O439   2.440       .  S
O438        C525   1.264       .  A
O438       Cd529   2.458       .  S
C440        O444   1.268       .  A
C440        C598   1.464   1_545  S
C445        C446   1.206       .  T
C447        C448   1.203       .  T
C449        C450   1.207       .  T
C451        C452   1.207       .  T
C453        H455   1.085       .  S
C454        H456   1.085       .  S
C457        H459   1.085       .  S
C457        C458   1.359       .  D
C458        H460   1.085       .  S
C461        C462   1.530       .  S
C461        C467   1.528       .  S
C461        C465   1.528       .  S
C461        C544   1.467       .  S
C462        H469   1.087       .  S
C462        C463   1.366       .  D
C463        C464   1.542       .  S
C463        C542   1.439       .  S
C464        C468   1.558       .  S
C464        C466   1.559       .  S
C464        H470   1.111       .  S
C465        H471   1.087       .  S
C465        C466   1.364       .  D
C466        C546   1.496       .  S
C467        H472   1.087       .  S
C467        C468   1.363       .  D
C468        C550   1.495       .  S
C473        C474   1.526       .  S
C473        C479   1.528       .  S
C473        C477   1.527       .  S
C473        C540   1.463       .  S
C474        H481   1.087       .  S
C474        C475   1.363       .  D
C475        C476   1.559       .  S
C475        C545   1.494       .  S
C476        C480   1.545       .  S
C476        C478   1.558       .  S
C476        H482   1.110       .  S
C477        H483   1.087       .  S
C477        C478   1.363       .  D
C478        C549   1.495       .  S
C479        H484   1.087       .  S
C479        C480   1.364       .  D
C480        C537   1.440       .  S
C486        O495   1.265       .  A
O487        C493   1.262       .  A
O487       Cd490   2.468       .  S
C488        O496   1.264       .  A
C489        O494   1.266       .  A
C489        O492   1.262       .  A
C489        C539   1.429       .  S
Cd490       O496   2.447       .  S
Cd490       O495   2.448       .  S
Cd490       O494   2.466       .  S
Cd490       O492   2.434       .  S
C493        C699   1.465       .  S
C499        O508   1.265       .  A
O500        C506   1.263       .  A
O500       Cd503   2.493       .  S
C501        O509   1.265       .  A
C502        O507   1.266       .  A
C502        O505   1.261       .  A
C502        C543   1.434       .  S
Cd503       O510   2.468       .  S
Cd503       O509   2.429       .  S
Cd503       O508   2.445       .  S
Cd503       O507   2.484       .  S
Cd503       O505   2.442       .  S
C506        O510   1.262       .  A
C506        C716   1.467       .  S
C512        O521   1.266       .  A
O513        C519   1.265       .  A
O513       Cd516   2.480       .  S
C514        O522   1.264       .  A
C515        O520   1.261       .  A
C515        C677   1.464   1_545  S
Cd516       O523   2.443       .  S
Cd516       O522   2.465       .  S
Cd516       O521   2.474       .  S
Cd516       O520   2.455       .  S
C519        O523   1.264       .  A
C519        C538   1.435       .  S
C525        O534   1.265       .  A
O526        C532   1.262       .  A
O526       Cd529   2.474       .  S
C527        O535   1.266       .  A
C528        O533   1.265       .  A
C528        O531   1.263       .  A
C528        C541   1.433       .  S
Cd529       O536   2.466       .  S
Cd529       O535   2.465       .  S
Cd529       O534   2.477       .  S
Cd529       O533   2.481       .  S
Cd529       O531   2.442       .  S
C532        O536   1.262       .  A
C532        C690   1.462   1_545  S
C537        C538   1.205       .  T
C539        C540   1.203       .  T
C541        C542   1.205       .  T
C543        C544   1.205       .  T
C545        H547   1.085       .  S
C546        H548   1.085       .  S
C549        H551   1.085       .  S
C549        C550   1.360       .  D
C550        H552   1.085       .  S
C553        C554   1.527       .  S
C553        C559   1.528       .  S
C553        C557   1.528       .  S
C553        C636   1.462       .  S
C554        H561   1.087       .  S
C554        C555   1.364       .  D
C555        C556   1.547       .  S
C555        C634   1.442       .  S
C556        C560   1.556       .  S
C556        C558   1.559       .  S
C556        H562   1.110       .  S
C557        H563   1.087       .  S
C557        C558   1.364       .  D
C558        C638   1.495       .  S
C559        H564   1.087       .  S
C559        C560   1.363       .  D
C560        C642   1.492       .  S
C565        C566   1.528       .  S
C565        C571   1.530       .  S
C565        C569   1.528       .  S
C565        C632   1.469       .  S
C566        H573   1.087       .  S
C566        C567   1.363       .  D
C567        C568   1.556       .  S
C567        C637   1.495       .  S
C568        C572   1.543       .  S
C568        C570   1.559       .  S
C568        H574   1.111       .  S
C569        H575   1.087       .  S
C569        C570   1.365       .  D
C570        C641   1.496       .  S
C571        H576   1.087       .  S
C571        C572   1.366       .  D
C572        C629   1.441       .  S
O577        C672   1.266   1_554  A
O577       Cd674   2.455   1_554  S
C578        O587   1.266       .  A
C578        O675   1.266       .  A
C578        C683   1.460       .  S
O579        C585   1.269       .  A
O579       Cd582   2.521       .  S
C580        O669   1.264       .  A
C580        O588   1.266       .  A
C581        O586   1.268       .  A
C581        O584   1.263       .  A
C581        C631   1.436       .  S
Cd582       O669   2.442       .  S
Cd582       O681   2.398       .  S
Cd582       O588   2.468       .  S
Cd582       O587   2.451       .  S
Cd582       O675   2.447       .  S
Cd582       O586   2.482       .  S
Cd582       O584   2.443       .  S
O583        C670   1.267   1_554  A
O583       Cd674   2.456   1_554  S
C585        O681   1.260       .  A
O589        C677   1.264       .  A
O589       Cd674   2.497       .  S
O590        C685   1.265       .  A
O590       Cd687   2.450       .  S
C591        O600   1.265       .  A
C591        O688   1.264   1_554  A
C591        C670   1.459   1_554  S
O592        C598   1.262       .  A
O592       Cd595   2.400       .  S
C593        O682   1.266   1_554  A
C593        O601   1.266       .  A
C594        O599   1.267       .  A
C594        O597   1.262       .  A
C594        C635   1.428       .  S
Cd595       O682   2.442   1_554  S
Cd595       O602   2.514       .  S
Cd595       O601   2.439       .  S
Cd595       O600   2.458       .  S
Cd595       O688   2.443   1_554  S
Cd595       O599   2.464       .  S
Cd595       O597   2.422       .  S
O596        C683   1.267       .  A
O596       Cd687   2.449       .  S
C598        O602   1.268       .  A
O603        C698   1.265   1_554  A
O603       Cd700   2.474   1_554  S
C604        O613   1.265       .  A
C604        O701   1.266       .  A
C604        C711   1.467       .  S
O605        C611   1.265       .  A
O605       Cd608   2.491       .  S
C606        O695   1.264       .  A
C606        O614   1.265       .  A
C607        O612   1.262       .  A
C607        O702   1.263       .  A
Cd608       O695   2.463       .  S
Cd608       O615   2.445       .  S
Cd608       O614   2.473       .  S
Cd608       O613   2.459       .  S
Cd608       O701   2.477       .  S
Cd608       O612   2.474       .  S
Cd608       O702   2.481       .  S
O609        C696   1.266   1_554  A
O609       Cd700   2.466   1_554  S
O610        C699   1.263       .  A
O610       Cd700   2.487       .  S
C611        O615   1.263       .  A
C611        C630   1.436       .  S
O616        C711   1.264       .  A
O616       Cd713   2.464       .  S
C617        O626   1.264       .  A
C617        O714   1.266   1_554  A
O618        C624   1.268       .  A
O618       Cd621   2.518       .  S
C619        O708   1.266   1_554  A
C619        O627   1.265       .  A
C619        C696   1.467   1_554  S
C620        O625   1.265       .  A
C620        O623   1.264       .  A
C620        C633   1.437       .  S
Cd621       O708   2.479   1_554  S
Cd621       O628   2.423       .  S
Cd621       O627   2.463       .  S
Cd621       O626   2.463       .  S
Cd621       O714   2.478   1_554  S
Cd621       O625   2.481       .  S
Cd621       O623   2.454       .  S
O622        C709   1.264       .  A
O622       Cd713   2.448       .  S
C624        O628   1.263       .  A
C629        C630   1.206       .  T
C631        C632   1.206       .  T
C633        C634   1.207       .  T
C635        C636   1.202       .  T
C637        H639   1.085       .  S
C638        H640   1.085       .  S
C641        H643   1.085       .  S
C641        C642   1.358       .  D
C642        H644   1.085       .  S
C645        C646   1.528       .  S
C645        C651   1.527       .  S
C645        C649   1.528       .  S
C645        C728   1.461       .  S
C646        H653   1.087       .  S
C646        C647   1.365       .  D
C647        C648   1.543       .  S
C647        C726   1.439       .  S
C648        C652   1.557       .  S
C648        C650   1.558       .  S
C648        H654   1.110       .  S
C649        H655   1.087       .  S
C649        C650   1.364       .  D
C650        C730   1.495       .  S
C651        H656   1.087       .  S
C651        C652   1.362       .  D
C652        C734   1.493       .  S
C657        C658   1.527       .  S
C657        C663   1.529       .  S
C657        C661   1.526       .  S
C657        C724   1.463       .  S
C658        H665   1.087       .  S
C658        C659   1.363       .  D
C659        C660   1.557       .  S
C659        C729   1.494       .  S
C660        C664   1.544       .  S
C660        C662   1.559       .  S
C660        H666   1.110       .  S
C661        H667   1.087       .  S
C661        C662   1.363       .  D
C662        C733   1.495       .  S
C663        H668   1.087       .  S
C663        C664   1.366       .  D
C664        C721   1.442       .  S
C670        O679   1.266       .  A
O671        C677   1.261       .  A
O671       Cd674   2.448       .  S
C672        O680   1.264       .  A
C673        O678   1.266       .  A
C673        O676   1.261       .  A
C673        C723   1.430       .  S
Cd674       O680   2.441       .  S
Cd674       O679   2.434       .  S
Cd674       O678   2.474       .  S
Cd674       O676   2.434       .  S
C683        O692   1.266       .  A
O684        C690   1.262       .  A
O684       Cd687   2.475       .  S
C685        O693   1.263       .  A
C686        O691   1.266       .  A
C686        O689   1.261       .  A
C686        C727   1.428       .  S
Cd687       O694   2.467       .  S
Cd687       O693   2.434       .  S
Cd687       O692   2.441       .  S
Cd687       O691   2.463       .  S
Cd687       O689   2.431       .  S
C690        O694   1.262       .  A
C696        O705   1.266       .  A
O697        C703   1.265       .  A
O697       Cd700   2.495       .  S
C698        O706   1.265       .  A
C699        O704   1.262       .  A
Cd700       O707   2.445       .  S
Cd700       O706   2.480       .  S
Cd700       O705   2.470       .  S
Cd700       O704   2.470       .  S
C703        O707   1.262       .  A
C703        C722   1.436       .  S
C709        O718   1.266       .  A
O710        C716   1.264       .  A
O710       Cd713   2.490       .  S
C711        O719   1.265       .  A
C712        O717   1.265       .  A
C712        O715   1.263       .  A
C712        C725   1.434       .  S
Cd713       O720   2.464       .  S
Cd713       O719   2.484       .  S
Cd713       O718   2.475       .  S
Cd713       O717   2.486       .  S
Cd713       O715   2.439       .  S
C716        O720   1.262       .  A
C721        C722   1.206       .  T
C723        C724   1.203       .  T
C725        C726   1.205       .  T
C727        C728   1.202       .  T
C729        H731   1.085       .  S
C730        H732   1.085       .  S
C733        H735   1.085       .  S
C733        C734   1.360       .  D
C734        H736   1.085       .  S
