geometry optimzed in LAMMPS
_audit_creation_date              2020-11-30 
_audit_creation_method            'lammps2cif' 
_symmetry_space_group_name_H-M    'P1' 
_symmetry_Int_Tables_number       1 
_symmetry_cell_setting            triclinic 
loop_ 
_symmetry_equiv_pos_as_xyz 
  x,y,z 
_cell_length_a                    55.08099433 
_cell_length_b                    24.82460150677141 
_cell_length_c                    43.83958021069082 
_cell_angle_alpha                 89.50354993574342 
_cell_angle_beta                  88.62249742182138 
_cell_angle_gamma                 89.4033754795101 
loop_ 
_atom_site_label 
_atom_site_type_symbol 
_atom_site_fract_x 
_atom_site_fract_y 
_atom_site_fract_z 
_atom_site_charge 
C1          C  0.89209528  0.51445053  0.01449469     0.03400
C2          C  0.91762335  0.51044027  0.01542711    -0.12800
C3          C  0.93203295  0.50851081  0.48856884     0.00900
C4          C  0.92064096  0.51252797  0.46031132    -0.11300
C5          C  0.89525445  0.51804950  0.45848852     0.03300
C6          C  0.88112707  0.51842655  0.98574393    -0.10700
H7          H  0.92642629  0.50809292  0.03718071     0.08900
H8          H  0.93165466  0.51104535  0.43954683     0.06500
H9          H  0.86157735  0.52153955  0.48447307     0.06300
C10         C  0.11470393  0.49022941  0.49160853     0.03400
C11         C  0.08921126  0.49389992  0.49134560    -0.12800
C12         C  0.07527924  0.49453490  0.51863025     0.00900
C13         C  0.08724695  0.49035885  0.04660228    -0.11300
C14         C  0.11274124  0.48618744  0.04743079     0.03300
C15         C  0.12624285  0.48665873  0.51979881    -0.10700
H16         H  0.08013334  0.49675668  0.46977000     0.08900
H17         H  0.07666946  0.48921779  0.06773483     0.06500
H18         H  0.14588733  0.48570768  0.52030437     0.06300
O19         O  0.34626575  0.01745552  0.23387879    -0.57600
C20         C  0.33522832  0.01340405  0.32163044     0.75000
O21         O  0.27086814  0.06714248  0.27113945    -0.58700
C22         C  0.33644953  0.00519838  0.20913937     0.75000
C23         C  0.28728957  0.90557366  0.27136040     0.77400
Cd24       Cd  0.30881336  0.01171428  0.26604640     1.37500
O25         O  0.34555640  0.02322424  0.29607961    -0.57600
O26         O  0.30573274  0.91891727  0.28603112    -0.56400
C27         C  0.28111600  0.11220038  0.26748407     0.77400
O28         O  0.27848758  0.94141080  0.25392367    -0.58800
O29         O  0.31266185  0.00428234  0.32140028    -0.57200
O30         O  0.31397732  0.99533446  0.21075277    -0.57200
O31         O  0.30382831  0.11054878  0.26306769    -0.56400
O32         O  0.16208138  0.52214922  0.23777332    -0.57600
C33         C  0.17392373  0.51578763  0.32374740     0.75000
O34         O  0.23759394  0.45735828  0.25964592    -0.58700
C35         C  0.17077490  0.50500233  0.21261016     0.75000
C36         C  0.22491651  0.61654313  0.26096814     0.77400
Cd37       Cd  0.20031997  0.51318909  0.26597410     1.37500
O38         O  0.16517488  0.53578402  0.29968315    -0.57600
O39         O  0.21116863  0.59890708  0.24081916    -0.56400
C40         C  0.22726724  0.41265244  0.26483277     0.77400
O41         O  0.22862007  0.58513341  0.28329191    -0.58800
O42         O  0.19476211  0.49434035  0.32103419    -0.57200
O43         O  0.19275945  0.48962473  0.21251367    -0.57200
O44         O  0.20463314  0.41470889  0.27041005    -0.56400
O45         O  0.66493307  0.00690652  0.26575640    -0.57600
C46         C  0.68113724  0.01068790  0.16633711     0.75000
O47         O  0.73204467  0.06838790  0.22855502    -0.58700
C48         C  0.67796718  0.99416583  0.28832288     0.75000
C49         C  0.72023075  0.89463577  0.22344811     0.77400
Cd50       Cd  0.69922384  0.00106375  0.22746057     1.37500
O51         O  0.66756457  0.99465342  0.18840794    -0.57600
O52         O  0.69787048  0.90451692  0.21994517    -0.56400
C53         C  0.71754545  0.10808625  0.23267184     0.77400
O54         O  0.73367923  0.93499305  0.22808276    -0.58800
O55         O  0.70269648  0.02269307  0.17271164    -0.57200
O56         O  0.70004242  0.98319839  0.28232965    -0.57200
O57         O  0.69515106  0.09738773  0.23479518    -0.56400
O58         O  0.83774094  0.50785177  0.27808826    -0.57600
C59         C  0.83204354  0.49333513  0.18276052     0.75000
O60         O  0.77016296  0.43437390  0.23926765    -0.58700
C61         C  0.82449674  0.49680895  0.30133092     0.75000
C62         C  0.78544072  0.60619275  0.23848470     0.77400
Cd63       Cd  0.80533037  0.49796534  0.24038500     1.37500
O64         O  0.84230369  0.48445216  0.20793352    -0.57600
O65         O  0.80751099  0.59557978  0.24336479    -0.56400
C66         C  0.78383639  0.39282168  0.23793084     0.77400
O67         O  0.77173172  0.56600546  0.23478522    -0.58800
O68         O  0.80963339  0.50500531  0.18431620    -0.57200
O69         O  0.80256540  0.48570799  0.29632711    -0.57200
O70         O  0.80644008  0.40097391  0.23827170    -0.56400
C71         C  0.39377644  0.96837888  0.04118881     0.03400
C72         C  0.41927690  0.96434249  0.03952559    -0.12800
C73         C  0.43168322  0.96394219  0.51113187     0.00900
C74         C  0.41831293  0.96558523  0.48428845    -0.11300
C75         C  0.39291449  0.97020667  0.48541477     0.03300
C76         C  0.38086273  0.97218274  0.51396139    -0.10700
H77         H  0.42952220  0.96225220  0.06027601     0.08900
H78         H  0.42779635  0.96295106  0.46241358     0.06500
H79         H  0.36136062  0.97806948  0.51498471     0.06300
C80         C  0.61151736  0.01979282  0.45207165     0.03400
C81         C  0.62493711  0.01439300  0.47907118    -0.12800
C82         C  0.61281450  0.00670276  0.00752281     0.00900
C83         C  0.58728994  0.00629863  0.00867876    -0.11300
C84         C  0.57377472  0.01028252  0.48212867     0.03300
C85         C  0.58605679  0.01665897  0.45403238    -0.10700
H86         H  0.64458835  0.01528454  0.47791436     0.08900
H87         H  0.57785220  0.00289076  0.03056680     0.06500
H88         H  0.57571360  0.01744809  0.43333026     0.06300
C89         C  0.45860457  0.96456682  0.50921605    -0.05000
C90         C  0.47263241  0.93216832  0.02863779    -0.04900
C91         C  0.49800209  0.93396429  0.02692836    -0.23100
C92         C  0.50973705  0.96849925  0.00593269     0.19100
C93         C  0.49576197  0.00113426  0.48631914     0.16300
C94         C  0.47038760  0.99885479  0.48803783    -0.18100
C95         C  0.50736482  0.03606635  0.46553051    -0.20000
C96         C  0.53263754  0.03910267  0.46431580    -0.12500
C97         C  0.54684016  0.00684660  0.48364411     0.04100
C98         C  0.53516634  0.97127226  0.00432677    -0.24700
H99         H  0.46396977  0.90512525  0.04496213     0.09200
H100        H  0.50843253  0.90858926  0.04212985     0.12800
H101        H  0.45976800  0.02475436  0.47329801     0.12800
H102        H  0.49687874  0.06148993  0.45040995     0.12500
H103        H  0.54106004  0.06739195  0.44849834     0.13100
H104        H  0.54583618  0.94542336  0.01901716     0.15000
C105        C  0.62331761  0.02594832  0.42124388    -0.05000
C106        C  0.61247808  0.05951383  0.39920708    -0.04900
C107        C  0.62080440  0.05958391  0.36886853    -0.23100
C108        C  0.64041007  0.02661789  0.35985247     0.19100
C109        C  0.65229818  0.99471895  0.38198235     0.16300
C110        C  0.64371115  0.99459538  0.41253155    -0.18100
C111        C  0.67229841  0.96274030  0.37300591    -0.20000
C112        C  0.68040486  0.96234003  0.34251056    -0.12500
C113        C  0.66842815  0.99310050  0.32023595     0.04100
C114        C  0.64832705  0.02507452  0.32909981    -0.24700
H115        H  0.59706535  0.08496377  0.40533525     0.09200
H116        H  0.61167586  0.08492879  0.35237331     0.12800
H117        H  0.65221888  0.96837770  0.42913479     0.12800
H118        H  0.68173008  0.93814833  0.38958022     0.12500
H119        H  0.69604502  0.93765043  0.33627686     0.13100
H120        H  0.63920842  0.04963701  0.31221430     0.15000
C121        C  0.62595580  0.99694699  0.03643445    -0.05000
C122        C  0.61728967  0.95713242  0.05689121    -0.04900
C123        C  0.62668780  0.95155458  0.08597304    -0.23100
C124        C  0.64522916  0.98524880  0.09527657     0.19100
C125        C  0.65519991  0.02350645  0.07451321     0.16300
C126        C  0.64550349  0.02916083  0.04509841    -0.18100
C127        C  0.67427575  0.05607607  0.08392084    -0.20000
C128        C  0.68297630  0.05137311  0.11365139    -0.12500
C129        C  0.67244102  0.01482088  0.13468255     0.04100
C130        C  0.65369613  0.98158795  0.12518447    -0.24700
H131        H  0.60268368  0.93088381  0.05057999     0.09200
H132        H  0.61912120  0.92142616  0.10139779     0.12800
H133        H  0.65241810  0.05988062  0.02956842     0.12800
H134        H  0.68233670  0.08540935  0.06839662     0.12500
H135        H  0.69761071  0.07714885  0.12042846     0.13100
H136        H  0.64577128  0.95260810  0.14106445     0.15000
C137        C  0.72599363  0.16432400  0.23466863    -0.05000
C138        C  0.70926795  0.20646420  0.24056619    -0.04900
C139        C  0.71700967  0.25982970  0.24217193    -0.23100
C140        C  0.74164259  0.27211550  0.23791590     0.19100
C141        C  0.75854674  0.22995532  0.23190523     0.16300
C142        C  0.75064014  0.17651072  0.23028820    -0.18100
C143        C  0.78315851  0.24183635  0.22771503    -0.20000
C144        C  0.79106621  0.29479369  0.22973491    -0.12500
C145        C  0.77454933  0.33722369  0.23577427     0.04100
C146        C  0.74972582  0.32563161  0.23968578    -0.24700
H147        H  0.69012621  0.19818722  0.24396467     0.09200
H148        H  0.70373799  0.29142894  0.24679510     0.12800
H149        H  0.76368547  0.14445313  0.22559956     0.12800
H150        H  0.79635354  0.21010884  0.22301352     0.12500
H151        H  0.81026609  0.30252408  0.22645348     0.13100
H152        H  0.73681775  0.35795238  0.24436504     0.15000
C153        C  0.77665025  0.66283747  0.23703255    -0.05000
C154        C  0.79221149  0.70485842  0.24493445    -0.04900
C155        C  0.78455499  0.75862025  0.24324255    -0.23100
C156        C  0.76117594  0.77162344  0.23347890     0.19100
C157        C  0.74538267  0.72978711  0.22531526     0.16300
C158        C  0.75317150  0.67569492  0.22721902    -0.18100
C159        C  0.72201741  0.74278671  0.21550461    -0.20000
C160        C  0.71420336  0.79647244  0.21433619    -0.12500
C161        C  0.72959428  0.83841603  0.22281225     0.04100
C162        C  0.75324047  0.82565849  0.23205850    -0.24700
H163        H  0.81040989  0.69617100  0.25253275     0.09200
H164        H  0.79693405  0.79001832  0.24960923     0.12800
H165        H  0.74104586  0.64375780  0.22089912     0.12800
H166        H  0.70967162  0.71139764  0.20903193     0.12500
H167        H  0.69591293  0.80511461  0.20705856     0.13100
H168        H  0.76525593  0.85754971  0.23875590     0.15000
C169        C  0.35041037  0.00268587  0.17995923    -0.05000
C170        C  0.37334692  0.02670767  0.17703272    -0.04900
C171        C  0.38642610  0.02502829  0.14931190    -0.23100
C172        C  0.37692772  0.99857682  0.12416857     0.19100
C173        C  0.35400798  0.97372255  0.12703860     0.16300
C174        C  0.34080675  0.97638218  0.15476845    -0.18100
C175        C  0.34467809  0.94641168  0.10216119    -0.20000
C176        C  0.35783422  0.94400624  0.07459966    -0.12500
C177        C  0.38045064  0.96950848  0.07113537     0.04100
C178        C  0.38992154  0.99666318  0.09622096    -0.24700
H179        H  0.38107029  0.04735917  0.19612231     0.09200
H180        H  0.40397644  0.04424630  0.14757543     0.12800
H181        H  0.32318688  0.95747501  0.15683442     0.12800
H182        H  0.32724541  0.92669675  0.10404458     0.12500
H183        H  0.35029258  0.92179559  0.05597102     0.13100
H184        H  0.40715455  0.01710560  0.09391653     0.15000
C185        C  0.34881348  0.01158349  0.35018751    -0.05000
C186        C  0.37161504  0.03600436  0.35182121    -0.04900
C187        C  0.38463858  0.03346545  0.37876328    -0.23100
C188        C  0.37520933  0.00568179  0.40432286     0.19100
C189        C  0.35239345  0.98049673  0.40275728     0.16300
C190        C  0.33924282  0.98404514  0.37582110    -0.18100
C191        C  0.34316915  0.95187706  0.42808780    -0.20000
C192        C  0.35640429  0.94831798  0.45479953    -0.12500
C193        C  0.37900616  0.97374089  0.45681835     0.04100
C194        C  0.38825158  0.00255036  0.43136611    -0.24700
H195        H  0.37930960  0.05737811  0.33229383     0.09200
H196        H  0.40213080  0.05288118  0.37954027     0.12800
H197        H  0.32177203  0.96456024  0.37463235     0.12800
H198        H  0.32579841  0.93195386  0.42718262     0.12500
H199        H  0.34903162  0.92506766  0.47380399     0.13100
H200        H  0.40545770  0.02306060  0.43265393     0.15000
C201        C  0.24081160  0.36075663  0.26436294    -0.05000
C202        C  0.26580972  0.35949465  0.25722259    -0.04900
C203        C  0.27865134  0.31063061  0.25651223    -0.23100
C204        C  0.26672245  0.26203956  0.26292011     0.19100
C205        C  0.24159132  0.26273618  0.27019066     0.16300
C206        C  0.22880882  0.31203469  0.27091881    -0.18100
C207        C  0.22966700  0.21407057  0.27649664    -0.20000
C208        C  0.24249913  0.16515545  0.27551767    -0.12500
C209        C  0.26749512  0.16398509  0.26834787     0.04100
C210        C  0.27950435  0.21278628  0.26211206    -0.24700
H211        H  0.27546992  0.39637770  0.25208928     0.09200
H212        H  0.29790870  0.31085048  0.25088077     0.12800
H213        H  0.20953019  0.31240338  0.27649626     0.12800
H214        H  0.21040955  0.21381330  0.28212695     0.12500
H215        H  0.23285199  0.12818736  0.28047051     0.13100
H216        H  0.29878225  0.21248657  0.25652589     0.15000
C217        C  0.23530816  0.67139328  0.25859312    -0.05000
C218        C  0.22940702  0.70486496  0.23373648    -0.04900
C219        C  0.23793204  0.75759052  0.23167015    -0.23100
C220        C  0.25268991  0.77800743  0.25433232     0.19100
C221        C  0.25896938  0.74473429  0.27935986     0.16300
C222        C  0.25016539  0.69170513  0.28141459    -0.18100
C223        C  0.27402027  0.76510512  0.30179327    -0.20000
C224        C  0.28304791  0.81748144  0.29920611    -0.12500
C225        C  0.27691994  0.85085432  0.27439672     0.04100
C226        C  0.26146023  0.83094958  0.25219119    -0.24700
H227        H  0.21792537  0.69043939  0.21590934     0.09200
H228        H  0.23297236  0.78240831  0.21229073     0.12800
H229        H  0.25479288  0.66644033  0.30075970     0.12800
H230        H  0.27902254  0.74036028  0.32118342     0.12500
H231        H  0.29485056  0.83195610  0.31668802     0.13100
H232        H  0.25670870  0.85619597  0.23288473     0.15000
C233        C  0.15632499  0.50451323  0.18458203    -0.05000
C234        C  0.13546413  0.53722295  0.18232298    -0.04900
C235        C  0.12266992  0.53993024  0.15516693    -0.23100
C236        C  0.13031348  0.50935566  0.12988337     0.19100
C237        C  0.15098597  0.47545211  0.13212316     0.16300
C238        C  0.16394615  0.47351382  0.15934882    -0.18100
C239        C  0.15846365  0.44438088  0.10700455    -0.20000
C240        C  0.14579422  0.44735606  0.07979382    -0.12500
C241        C  0.12546328  0.48172206  0.07699875     0.04100
C242        C  0.11774858  0.51242988  0.10236060    -0.24700
H243        H  0.12935547  0.56177597  0.20137223     0.09200
H244        H  0.10687413  0.56614546  0.15389894     0.12800
H245        H  0.17999256  0.44805609  0.16086200     0.12800
H246        H  0.17414728  0.41783567  0.10836700     0.12500
H247        H  0.15189682  0.42250250  0.06087818     0.13100
H248        H  0.10228552  0.53950272  0.10052092     0.15000
C249        C  0.12921815  0.49055657  0.46244701    -0.05000
C250        C  0.15038828  0.45863209  0.45913716    -0.04900
C251        C  0.16370814  0.45807927  0.43157226    -0.23100
C252        C  0.15595285  0.48886972  0.40660428     0.19100
C253        C  0.13475215  0.52108121  0.40962994     0.16300
C254        C  0.12175972  0.52226781  0.43752552    -0.18100
C255        C  0.12670734  0.55124445  0.38459029    -0.20000
C256        C  0.13941775  0.54918236  0.35667946    -0.12500
C257        C  0.16057790  0.51751598  0.35339033     0.04100
C258        C  0.16886144  0.48762360  0.37857875    -0.24700
H259        H  0.15645129  0.43318825  0.47769032     0.09200
H260        H  0.17986808  0.43295580  0.42965625     0.12800
H261        H  0.10584778  0.54806894  0.43976752     0.12800
H262        H  0.11046360  0.57608316  0.38651031     0.12500
H263        H  0.13272982  0.57267150  0.33765691     0.13100
H264        H  0.18513343  0.46290752  0.37628179     0.15000
C265        C  0.84547304  0.49032194  0.15312600    -0.05000
C266        C  0.86762309  0.46195267  0.15084833    -0.04900
C267        C  0.88052945  0.45927242  0.12303999    -0.23100
C268        C  0.87178972  0.48594412  0.09711011     0.19100
C269        C  0.84960505  0.51482939  0.09911542     0.16300
C270        C  0.83636780  0.51609826  0.12697213    -0.18100
C271        C  0.84129321  0.54270340  0.07336559    -0.20000
C272        C  0.85501894  0.54273940  0.04604857    -0.12500
C273        C  0.87712982  0.51382505  0.04357138     0.04100
C274        C  0.88507976  0.48473139  0.06936140    -0.24700
H275        H  0.87491308  0.44149701  0.17059302     0.09200
H276        H  0.89754162  0.43698997  0.12193420     0.12800
H277        H  0.81932665  0.53827106  0.12849031     0.12800
H278        H  0.82439522  0.56541551  0.07451383     0.12500
H279        H  0.84843895  0.56639511  0.02706815     0.13100
H280        H  0.90162296  0.46086026  0.06801658     0.15000
C281        C  0.83403938  0.49714271  0.33267063    -0.05000
C282        C  0.82139413  0.47121444  0.35676928    -0.04900
C283        C  0.83046102  0.47103417  0.38634140    -0.23100
C284        C  0.85220727  0.49738037  0.39247133     0.19100
C285        C  0.86475804  0.52455786  0.36851485     0.16300
C286        C  0.85573221  0.52389561  0.33878995    -0.18100
C287        C  0.88621795  0.55176162  0.37464208    -0.20000
C288        C  0.89554388  0.55092710  0.40399557    -0.12500
C289        C  0.88382155  0.52235199  0.42792838     0.04100
C290        C  0.86180710  0.49634982  0.42197761    -0.24700
H291        H  0.80461156  0.45042994  0.35266040     0.09200
H292        H  0.82049882  0.45013156  0.40438948     0.12800
H293        H  0.86550614  0.54453662  0.32046720     0.12800
H294        H  0.89591254  0.57343751  0.35666428     0.12500
H295        H  0.91211757  0.57261504  0.40790893     0.13100
H296        H  0.85253011  0.47387189  0.43997510     0.15000
C297        C  0.04832674  0.50093179  0.51771754    -0.05000
C298        C  0.03592344  0.53406895  0.03893151    -0.04900
C299        C  0.01082223  0.54230053  0.03738395    -0.23100
C300        C  0.99754198  0.51759260  0.01457601     0.19100
C301        C  0.00969862  0.48387199  0.49324726     0.16300
C302        C  0.03492451  0.47563315  0.49498885    -0.18100
C303        C  0.99641007  0.45900904  0.47050941    -0.20000
C304        C  0.97131442  0.46726507  0.46897508    -0.12500
C305        C  0.95892397  0.50083990  0.49002369     0.04100
C306        C  0.97233146  0.52606986  0.01275350    -0.24700
H307        H  0.04572963  0.55471008  0.05638251     0.09200
H308        H  0.00181941  0.56834852  0.05392833     0.12800
H309        H  0.04407825  0.44927817  0.47872179     0.12800
H310        H  0.00540060  0.43286183  0.45400144     0.12500
H311        H  0.96153016  0.44647155  0.45156366     0.13100
H312        H  0.96321658  0.55271130  0.02889602     0.15000
C313        C  0.89209468  0.51444759  0.51449512     0.03400
C314        C  0.91762272  0.51043665  0.51542781    -0.12800
C315        C  0.93203346  0.50851508  0.98856803     0.00900
C316        C  0.92064126  0.51253207  0.96031061    -0.11300
C317        C  0.89525468  0.51805280  0.95848805     0.03300
C318        C  0.88112667  0.51842371  0.48574424    -0.10700
H319        H  0.92642554  0.50808926  0.53718152     0.08900
H320        H  0.93165483  0.51104978  0.93954601     0.06500
H321        H  0.86157772  0.52154200  0.98447297     0.06300
C322        C  0.11470464  0.49023262  0.99160752     0.03400
C323        C  0.08921200  0.49390410  0.99134450    -0.12800
C324        C  0.07527991  0.49453892  0.01862911     0.00900
C325        C  0.08724637  0.49035569  0.54660341    -0.11300
C326        C  0.11274068  0.48618489  0.54743178     0.03300
C327        C  0.12624349  0.48666119  0.01979786    -0.10700
H328        H  0.08013417  0.49676138  0.96976890     0.08900
H329        H  0.07666899  0.48921486  0.56773604     0.06500
H330        H  0.14588794  0.48570939  0.02030346     0.06300
O331        O  0.34626686  0.01745000  0.73387790    -0.57600
C332        C  0.33522931  0.01339725  0.82163076     0.75000
O333        O  0.27086952  0.06713606  0.77113787    -0.58700
C334        C  0.33645081  0.00519036  0.70913878     0.75000
C335        C  0.28729095  0.90556749  0.77136100     0.77400
Cd336      Cd  0.30881480  0.01170769  0.76604616     1.37500
O337        O  0.34555745  0.02321863  0.79608011    -0.57600
O338        O  0.30573474  0.91891053  0.78603072    -0.56400
C339        C  0.28111749  0.11219393  0.76748295     0.77400
O340        O  0.27848839  0.94140505  0.75392499    -0.58800
O341        O  0.31266296  0.00427440  0.82140024    -0.57200
O342        O  0.31397884  0.99532410  0.71075259    -0.57200
O343        O  0.30382990  0.11054225  0.76306748    -0.56400
O344        O  0.16208296  0.52214602  0.73777321    -0.57600
C345        C  0.17392454  0.51578251  0.82374596     0.75000
O346        O  0.23759586  0.45735237  0.75964549    -0.58700
C347        C  0.17077592  0.50499766  0.71261012     0.75000
C348        C  0.22491865  0.61653649  0.76096797     0.77400
Cd349      Cd  0.20032163  0.51318309  0.76597343     1.37500
O350        O  0.16517650  0.53578072  0.79968171    -0.57600
O351        O  0.21117235  0.59889905  0.74081764    -0.56400
C352        C  0.22726919  0.41264649  0.76483234     0.77400
O353        O  0.22862065  0.58512815  0.78329279    -0.58800
O354        O  0.19476243  0.49433279  0.82103302    -0.57200
O355        O  0.19276017  0.48961790  0.71251344    -0.57200
O356        O  0.20463508  0.41470291  0.77040958    -0.56400
O357        O  0.66493182  0.00690656  0.76575669    -0.57600
C358        C  0.68113712  0.01068592  0.66633713     0.75000
O359        O  0.73204388  0.06838619  0.72855634    -0.58700
C360        C  0.67796589  0.99416615  0.78832328     0.75000
C361        C  0.72022913  0.89463428  0.72344934     0.77400
Cd362      Cd  0.69922284  0.00106265  0.72746108     1.37500
O363        O  0.66756422  0.99465149  0.68840774    -0.57600
O364        O  0.69786883  0.90451575  0.71994700    -0.56400
C365        C  0.71754466  0.10808480  0.73267239     0.77400
O366        O  0.73367792  0.93499139  0.72808327    -0.58800
O367        O  0.70269619  0.02269180  0.67271212    -0.57200
O368        O  0.70004111  0.98319847  0.78233015    -0.57200
O369        O  0.69515021  0.09738662  0.73479495    -0.56400
O370        O  0.83773997  0.50785188  0.77808812    -0.57600
C371        C  0.83204196  0.49333380  0.68276028     0.75000
O372        O  0.77016206  0.43437221  0.73926812    -0.58700
C373        C  0.82449591  0.49680971  0.80133101     0.75000
C374        C  0.78543927  0.60619141  0.73848402     0.77400
Cd375      Cd  0.80532914  0.49796435  0.74038502     1.37500
O376        O  0.84230218  0.48445087  0.70793323    -0.57600
O377        O  0.80750970  0.59557875  0.74336323    -0.56400
C378        C  0.78383564  0.39282025  0.73793105     0.77400
O379        O  0.77173017  0.56600390  0.73478568    -0.58800
O380        O  0.80963186  0.50500442  0.68431605    -0.57200
O381        O  0.80256456  0.48570845  0.79632741    -0.57200
O382        O  0.80643932  0.40097291  0.73827151    -0.56400
C383        C  0.39377712  0.96837735  0.54118725     0.03400
C384        C  0.41927756  0.96434063  0.53952367    -0.12800
C385        C  0.43168273  0.96394262  0.01113392     0.00900
C386        C  0.41831264  0.96558361  0.98429036    -0.11300
C387        C  0.39291420  0.97020465  0.98541631     0.03300
C388        C  0.38086222  0.97218226  0.01396273    -0.10700
H389        H  0.42952297  0.96224891  0.56027401     0.08900
H390        H  0.42779623  0.96294840  0.96241562     0.06500
H391        H  0.36136008  0.97806874  0.01498563     0.06300
C392        C  0.61151615  0.01979501  0.95207208     0.03400
C393        C  0.62493615  0.01439586  0.97907148    -0.12800
C394        C  0.61281521  0.00669937  0.50752231     0.00900
C395        C  0.58729062  0.00629492  0.50867788    -0.11300
C396        C  0.57377381  0.01028559  0.98212973     0.03300
C397        C  0.58605561  0.01666105  0.95403322    -0.10700
H398        H  0.64458738  0.01528738  0.97791442     0.08900
H399        H  0.57785268  0.00288659  0.53056575     0.06500
H400        H  0.57571220  0.01744928  0.93333126     0.06300
C401        C  0.45860406  0.96456822  0.00921832    -0.05000
C402        C  0.47263275  0.93216551  0.52863500    -0.04900
C403        C  0.49800244  0.93396061  0.52692554    -0.23100
C404        C  0.50973763  0.96849612  0.50593038     0.19100
C405        C  0.49576120  0.00113609  0.98632102     0.16300
C406        C  0.47038687  0.99885574  0.98803967    -0.18100
C407        C  0.50736380  0.03606765  0.96553186    -0.20000
C408        C  0.53263648  0.03910446  0.96431692    -0.12500
C409        C  0.54683930  0.00684950  0.98364556     0.04100
C410        C  0.53516695  0.97126861  0.50432465    -0.24700
H411        H  0.46396996  0.90512204  0.54495897     0.09200
H412        H  0.50843272  0.90858446  0.54212664     0.12800
H413        H  0.45976712  0.02475417  0.97329941     0.12800
H414        H  0.49687759  0.06149033  0.95041101     0.12500
H415        H  0.54105879  0.06739323  0.94849898     0.13100
H416        H  0.54583663  0.94541884  0.51901479     0.15000
C417        C  0.62331609  0.02594983  0.92124408    -0.05000
C418        C  0.61247602  0.05951371  0.89920691    -0.04900
C419        C  0.62080221  0.05958307  0.86886829    -0.23100
C420        C  0.64040829  0.02661803  0.85985255     0.19100
C421        C  0.65229686  0.99472070  0.88198275     0.16300
C422        C  0.64370996  0.99459778  0.91253200    -0.18100
C423        C  0.67229745  0.96274295  0.87300662    -0.20000
C424        C  0.68040388  0.96234216  0.84251127    -0.12500
C425        C  0.66842683  0.99310128  0.82023636     0.04100
C426        C  0.64832530  0.02507423  0.82909990    -0.24700
H427        H  0.59706304  0.08496300  0.90533483     0.09200
H428        H  0.61167331  0.08492674  0.85237283     0.12800
H429        H  0.65221808  0.96838129  0.92913547     0.12800
H430        H  0.68172945  0.93815219  0.88958117     0.12500
H431        H  0.69604433  0.93765324  0.83627783     0.13100
H432        H  0.63920635  0.04963558  0.81221416     0.15000
C433        C  0.62595633  0.99694376  0.53643410    -0.05000
C434        C  0.61729012  0.95712931  0.55689087    -0.04900
C435        C  0.62668828  0.95155134  0.58597269    -0.23100
C436        C  0.64522968  0.98524545  0.59527624     0.19100
C437        C  0.65520049  0.02350303  0.57451286     0.16300
C438        C  0.64550408  0.02915742  0.54509807    -0.18100
C439        C  0.67427628  0.05607269  0.58392054    -0.20000
C440        C  0.68297674  0.05136998  0.61365113    -0.12500
C441        C  0.67244131  0.01481806  0.63468236     0.04100
C442        C  0.65369654  0.98158487  0.62518420    -0.24700
H443        H  0.60268409  0.93088082  0.55057962     0.09200
H444        H  0.61912162  0.92142299  0.60139742     0.12800
H445        H  0.65241875  0.05987720  0.52956808     0.12800
H446        H  0.68233724  0.08540597  0.56839631     0.12500
H447        H  0.69761111  0.07714580  0.62042821     0.13100
H448        H  0.64577160  0.95260516  0.64106424     0.15000
C449        C  0.72599292  0.16432248  0.73466918    -0.05000
C450        C  0.70926716  0.20646300  0.74056565    -0.04900
C451        C  0.71700892  0.25982848  0.74217114    -0.23100
C452        C  0.74164195  0.27211394  0.73791606     0.19100
C453        C  0.75854620  0.22995346  0.73190660     0.16300
C454        C  0.75063957  0.17650884  0.73028978    -0.18100
C455        C  0.78315806  0.24183429  0.72771712    -0.20000
C456        C  0.79106572  0.29479178  0.72973655    -0.12500
C457        C  0.77454874  0.33722205  0.73577480     0.04100
C458        C  0.74972515  0.32563011  0.73968556    -0.24700
H459        H  0.69012534  0.19818626  0.74396339     0.09200
H460        H  0.70373715  0.29142803  0.74679327     0.12800
H461        H  0.76368495  0.14445098  0.72560202     0.12800
H462        H  0.79635314  0.21010657  0.72301649     0.12500
H463        H  0.81026568  0.30252202  0.72645572     0.13100
H464        H  0.73681698  0.35795106  0.74436386     0.15000
C465        C  0.77664877  0.66283608  0.73703177    -0.05000
C466        C  0.79221019  0.70485707  0.74493309    -0.04900
C467        C  0.78455361  0.75861883  0.74324156    -0.23100
C468        C  0.76117434  0.77162193  0.73347879     0.19100
C469        C  0.74538089  0.72978560  0.72531563     0.16300
C470        C  0.75316978  0.67569343  0.72721905    -0.18100
C471        C  0.72201539  0.74278519  0.71550584    -0.20000
C472        C  0.71420128  0.79647091  0.71433783    -0.12500
C473        C  0.72959244  0.83841445  0.72281341     0.04100
C474        C  0.75323883  0.82565692  0.73205876    -0.24700
H475        H  0.81040876  0.69616971  0.75253078     0.09200
H476        H  0.79693279  0.79001693  0.74960788     0.12800
H477        H  0.74104402  0.64375625  0.72089961     0.12800
H478        H  0.70966947  0.71139609  0.70903351     0.12500
H479        H  0.69591069  0.80511314  0.70706084     0.13100
H480        H  0.76525445  0.85754818  0.73875572     0.15000
C481        C  0.35041156  0.00267827  0.67995848    -0.05000
C482        C  0.37334784  0.02670128  0.67703187    -0.04900
C483        C  0.38642686  0.02502315  0.64931092    -0.23100
C484        C  0.37692856  0.99857194  0.62416745     0.19100
C485        C  0.35400907  0.97371655  0.62703749     0.16300
C486        C  0.34080803  0.97637467  0.65476757    -0.18100
C487        C  0.34467927  0.94640611  0.60215984    -0.20000
C488        C  0.35783528  0.94400207  0.57459815    -0.12500
C489        C  0.38045148  0.96950527  0.57113394     0.04100
C490        C  0.38992226  0.99665963  0.59621971    -0.24700
H491        H  0.38107111  0.04735284  0.69612151     0.09200
H492        H  0.40397700  0.04424199  0.64757443     0.12800
H493        H  0.32318834  0.95746668  0.65683358     0.12800
H494        H  0.32724674  0.92669044  0.60404316     0.12500
H495        H  0.35029373  0.92179182  0.55596928     0.13100
H496        H  0.40715509  0.01710273  0.59391531     0.15000
C497        C  0.34881427  0.01157687  0.85018804    -0.05000
C498        C  0.37161564  0.03599855  0.85182201    -0.04900
C499        C  0.38463893  0.03346036  0.87876429    -0.23100
C500        C  0.37520963  0.00567684  0.90432387     0.19100
C501        C  0.35239397  0.98049088  0.90275806     0.16300
C502        C  0.33924361  0.98403829  0.87582160    -0.18100
C503        C  0.34316965  0.95187138  0.92808865    -0.20000
C504        C  0.35640453  0.94831345  0.95480068    -0.12500
C505        C  0.37900615  0.97373736  0.95681965     0.04100
C506        C  0.38825161  0.00254650  0.93136734    -0.24700
H507        H  0.37931019  0.05737243  0.83229471     0.09200
H508        H  0.40213101  0.05287671  0.87954146     0.12800
H509        H  0.32177300  0.96455267  0.87463265     0.12800
H510        H  0.32579909  0.93194748  0.92718330     0.12500
H511        H  0.34903188  0.92506334  0.97380520     0.13100
H512        H  0.40545759  0.02305744  0.93265530     0.15000
C513        C  0.24081355  0.36075065  0.76436255    -0.05000
C514        C  0.26581195  0.35948882  0.75722369    -0.04900
C515        C  0.27865350  0.31062467  0.75651345    -0.23100
C516        C  0.26672433  0.26203343  0.76291990     0.19100
C517        C  0.24159292  0.26272993  0.77018886     0.16300
C518        C  0.22881049  0.31202851  0.77091699    -0.18100
C519        C  0.22966828  0.21406413  0.77649326    -0.20000
C520        C  0.24250038  0.16514898  0.77551448    -0.12500
C521        C  0.26749664  0.16397870  0.76834635     0.04100
C522        C  0.27950617  0.21278007  0.76211200    -0.24700
H523        H  0.27547237  0.39637197  0.75209156     0.09200
H524        H  0.29791110  0.31084461  0.75088321     0.12800
H525        H  0.20953167  0.31239708  0.77649325     0.12800
H526        H  0.21041061  0.21380679  0.78212227     0.12500
H527        H  0.23285299  0.12818072  0.78046617     0.13100
H528        H  0.29878430  0.21248045  0.75652715     0.15000
C529        C  0.23531009  0.67138687  0.75859326    -0.05000
C530        C  0.22940824  0.70485932  0.73373724    -0.04900
C531        C  0.23793280  0.75758525  0.73167132    -0.23100
C532        C  0.25269101  0.77800170  0.75433324     0.19100
C533        C  0.25897124  0.74472781  0.77936013     0.16300
C534        C  0.25016761  0.69169831  0.78141454    -0.18100
C535        C  0.27402263  0.76509810  0.80179317    -0.20000
C536        C  0.28305006  0.81747464  0.79920619    -0.12500
C537        C  0.27692134  0.85084820  0.77439742     0.04100
C538        C  0.26146106  0.83094408  0.75219236    -0.24700
H539        H  0.21792625  0.69043415  0.71591032     0.09200
H540        H  0.23297254  0.78240361  0.71229238     0.12800
H541        H  0.25479569  0.66643289  0.80075915     0.12800
H542        H  0.27902553  0.74035268  0.82118277     0.12500
H543        H  0.29485318  0.83194881  0.81668768     0.13100
H544        H  0.25670901  0.85619098  0.73288634     0.15000
C545        C  0.15632570  0.50450931  0.68458230    -0.05000
C546        C  0.13546506  0.53721981  0.68232364    -0.04900
C547        C  0.12267057  0.53992773  0.65516781    -0.23100
C548        C  0.13031368  0.50935301  0.62988411     0.19100
C549        C  0.15098594  0.47544869  0.63212358     0.16300
C550        C  0.16394637  0.47350968  0.65934899    -0.18100
C551        C  0.15846324  0.44437734  0.60700489    -0.20000
C552        C  0.14579362  0.44735304  0.57979436    -0.12500
C553        C  0.12546287  0.48171962  0.57699960     0.04100
C554        C  0.11774854  0.51242768  0.60236152    -0.24700
H555        H  0.12935676  0.56177291  0.70137304     0.09200
H556        H  0.10687497  0.56614351  0.65390011     0.12800
H557        H  0.17999256  0.44805133  0.66086186     0.12800
H558        H  0.17414671  0.41783160  0.60836709     0.12500
H559        H  0.15189589  0.42249937  0.56087864     0.13100
H560        H  0.10228558  0.53950090  0.60052204     0.15000
C561        C  0.12921889  0.49055865  0.96244596    -0.05000
C562        C  0.15038867  0.45863300  0.95913634    -0.04900
C563        C  0.16370841  0.45807844  0.93157138    -0.23100
C564        C  0.15595329  0.48886810  0.90660303     0.19100
C565        C  0.13475295  0.52108086  0.90962841     0.16300
C566        C  0.12176071  0.52226942  0.93752412    -0.18100
C567        C  0.12670833  0.55124332  0.88458835    -0.20000
C568        C  0.13941865  0.54917949  0.85667749    -0.12500
C569        C  0.16057846  0.51751192  0.85338869     0.04100
C570        C  0.16886171  0.48762000  0.87857743    -0.24700
H571        H  0.15645150  0.43318946  0.97768974     0.09200
H572        H  0.17986809  0.43295415  0.92965563     0.12800
H573        H  0.10584908  0.54807151  0.93976592     0.12800
H574        H  0.11046483  0.57608293  0.88650811     0.12500
H575        H  0.13273095  0.57266832  0.83765467     0.13100
H576        H  0.18513346  0.46290307  0.87628072     0.15000
C577        C  0.84547136  0.49031993  0.65312574    -0.05000
C578        C  0.86762115  0.46194969  0.65084818    -0.04900
C579        C  0.88052763  0.45926910  0.62303998    -0.23100
C580        C  0.87178825  0.48594130  0.59711011     0.19100
C581        C  0.84960375  0.51482734  0.59911524     0.16300
C582        C  0.83636637  0.51609660  0.62697183    -0.18100
C583        C  0.84129230  0.54270176  0.57336534    -0.20000
C584        C  0.85501829  0.54273751  0.54604852    -0.12500
C585        C  0.87712900  0.51382246  0.54357159     0.04100
C586        C  0.88507850  0.48472833  0.56936161    -0.24700
H587        H  0.87491090  0.44149358  0.67059290     0.09200
H588        H  0.89753964  0.43698606  0.62193430     0.12800
H589        H  0.81932538  0.53827005  0.62848993     0.12800
H590        H  0.82439445  0.56541448  0.57451337     0.12500
H591        H  0.84843865  0.56639355  0.52706803     0.13100
H592        H  0.90162159  0.46085667  0.56801695     0.15000
C593        C  0.83403869  0.49714442  0.83267073    -0.05000
C594        C  0.82139364  0.47121641  0.85676966    -0.04900
C595        C  0.83046072  0.47103665  0.88634169    -0.23100
C596        C  0.85220697  0.49738308  0.89247133     0.19100
C597        C  0.86475751  0.52456047  0.86851464     0.16300
C598        C  0.85573150  0.52389774  0.83878979    -0.18100
C599        C  0.88621741  0.55176458  0.87464163    -0.20000
C600        C  0.89554357  0.55093025  0.90399501    -0.12500
C601        C  0.88382151  0.52235509  0.92792802     0.04100
C602        C  0.86180700  0.49635287  0.92197753    -0.24700
H603        H  0.80461109  0.45043166  0.85266105     0.09200
H604        H  0.82049865  0.45013423  0.90438998     0.12800
H605        H  0.86550529  0.54453854  0.82046686     0.12800
H606        H  0.89591183  0.57344048  0.85666370     0.12500
H607        H  0.91211725  0.57261843  0.90790815     0.13100
H608        H  0.85253010  0.47387508  0.93997518     0.15000
C609        C  0.04832741  0.50093610  0.01771637    -0.05000
C610        C  0.03592281  0.53406537  0.53893231    -0.04900
C611        C  0.01082160  0.54229700  0.53738465    -0.23100
C612        C  0.99754135  0.51758848  0.51457692     0.19100
C613        C  0.00969928  0.48387691  0.99324597     0.16300
C614        C  0.03492518  0.47563813  0.99498745    -0.18100
C615        C  0.99641074  0.45901465  0.97050786    -0.20000
C616        C  0.97131505  0.46727042  0.96897374    -0.12500
C617        C  0.95892454  0.50084449  0.99002270     0.04100
C618        C  0.97233087  0.52606589  0.51275426    -0.24700
H619        H  0.04572901  0.55470704  0.55638305     0.09200
H620        H  0.00181880  0.56834552  0.55392878     0.12800
H621        H  0.04407894  0.44928361  0.97872014     0.12800
H622        H  0.00540129  0.43286810  0.95399959     0.12500
H623        H  0.96153080  0.44647725  0.95156216     0.13100
H624        H  0.96321598  0.55270786  0.52889650     0.15000
loop_ 
_geom_bond_atom_site_label_1 
_geom_bond_atom_site_label_2 
_geom_bond_distance 
_geom_bond_site_symmetry_2 
_ccdc_geom_bond_type 
C1            C2   1.410       .  A
C1            C6   1.413   1_554  A
C1          C273   1.501       .  S
C2          C315   1.405   1_554  A
C2            H7   1.081       .  S
C3            C4   1.404       .  A
C3          C314   1.405       .  A
C3          C305   1.494       .  S
C4            C5   1.408       .  A
C4            H8   1.082       .  S
C5          C318   1.410       .  A
C5          C289   1.497       .  S
C6          C317   1.410       .  A
C6          H321   1.082       .  S
H9          C318   1.082       .  S
C10          C11   1.406       .  A
C10          C15   1.405       .  A
C10         C249   1.491       .  S
C11          C12   1.406       .  A
C11          H16   1.082       .  S
C12         C325   1.409       .  A
C12         C297   1.493       .  S
C13          C14   1.408       .  A
C13         C324   1.409       .  A
C13          H17   1.083       .  S
C14         C327   1.406       .  A
C14         C241   1.491       .  S
C15         C326   1.406       .  A
C15          H18   1.083       .  S
O19          C22   1.264       .  A
O19         Cd24   2.475       .  S
C20         C185   1.474       .  S
C20          O29   1.266       .  A
C20          O25   1.267       .  A
O21          C27   1.265       .  A
O21         Cd24   2.497       .  S
C22         C169   1.478       .  S
C22          O30   1.264   1_545  A
C23         C225   1.483       .  S
C23          O28   1.268       .  A
C23          O26   1.264       .  A
Cd24         O31   2.469       .  S
Cd24         O30   2.471   1_545  S
Cd24         O29   2.446       .  S
Cd24         O25   2.461       .  S
Cd24         O28   2.498   1_545  S
Cd24         O26   2.464   1_545  S
C27         C209   1.482       .  S
C27          O31   1.262       .  A
O32          C35   1.267       .  A
O32         Cd37   2.475       .  S
C33         C257   1.478       .  S
C33          O42   1.264       .  A
C33          O38   1.266       .  A
O34          C40   1.269       .  A
O34         Cd37   2.477       .  S
C35         C233   1.480       .  S
C35          O43   1.266       .  A
C36         C217   1.484       .  S
C36          O41   1.265       .  A
C36          O39   1.261       .  A
Cd37         O44   2.460       .  S
Cd37         O43   2.467       .  S
Cd37         O42   2.467       .  S
Cd37         O38   2.470       .  S
Cd37         O41   2.517       .  S
Cd37         O39   2.461       .  S
C40         C201   1.482       .  S
C40          O44   1.265       .  A
O45          C48   1.272   1_545  A
O45         Cd50   2.501       .  S
C46         C129   1.481       .  S
C46          O55   1.266       .  A
C46          O51   1.272   1_545  A
O47          C53   1.273       .  A
O47         Cd50   2.476       .  S
C48         C113   1.483       .  S
C48          O56   1.265       .  A
C49         C161   1.483       .  S
C49          O54   1.273       .  A
C49          O52   1.266       .  A
Cd50         O57   2.423       .  S
Cd50         O56   2.444   1_545  S
Cd50         O55   2.458       .  S
Cd50         O51   2.480   1_545  S
Cd50         O54   2.496   1_545  S
Cd50         O52   2.424   1_545  S
C53         C137   1.480       .  S
C53          O57   1.266       .  A
O58          C61   1.269       .  A
O58         Cd63   2.477       .  S
C59         C265   1.482       .  S
C59          O68   1.265       .  A
C59          O64   1.268       .  A
O60          C66   1.272       .  A
O60         Cd63   2.513       .  S
C61         C281   1.483       .  S
C61          O69   1.267       .  A
C62         C153   1.484       .  S
C62          O67   1.271       .  A
C62          O65   1.264       .  A
Cd63         O70   2.410       .  S
Cd63         O69   2.470       .  S
Cd63         O68   2.469       .  S
Cd63         O64   2.478       .  S
Cd63         O67   2.508       .  S
Cd63         O65   2.432       .  S
C66         C145   1.482       .  S
C66          O70   1.264       .  A
C71          C72   1.407       .  A
C71         C388   1.406       .  A
C71         C177   1.489       .  S
C72         C385   1.406       .  A
C72          H77   1.083       .  S
C73          C74   1.403       .  A
C73         C384   1.406       .  A
C73          C89   1.483       .  S
C74          C75   1.402       .  A
C74          H78   1.083       .  S
C75          C76   1.403       .  A
C75         C193   1.486       .  S
C76         C383   1.406       .  A
C76          H79   1.082       .  S
C80          C81   1.415       .  A
C80          C85   1.406       .  A
C80         C105   1.493       .  S
C81         C394   1.413       .  A
C81          H86   1.083       .  S
C82          C83   1.406       .  A
C82         C393   1.413   1_554  A
C82         C121   1.491   1_545  S
C83         C396   1.399   1_554  A
C83          H87   1.083       .  S
C84          C85   1.400       .  A
C84         C395   1.399       .  A
C84          C97   1.487       .  S
C85          H88   1.083       .  S
C89          C94   1.406       .  A
C89         C402   1.406       .  A
C90          C91   1.399       .  A
C90         C401   1.406       .  A
C90          H99   1.083       .  S
C91          C92   1.403       .  A
C91         H100   1.084       .  S
C92          C98   1.403       .  A
C92         C405   1.412   1_564  A
C93          C95   1.400       .  A
C93          C94   1.400   1_545  A
C93         C404   1.412   1_545  A
C94         H101   1.085   1_565  S
C95          C96   1.395       .  A
C95         H102   1.084       .  S
C96          C97   1.406       .  A
C96         H103   1.083       .  S
C97         C410   1.409   1_545  A
C98         C409   1.409   1_564  A
C98         H104   1.084       .  S
C105        C106   1.410       .  A
C105        C110   1.407   1_545  A
C106        C107   1.396       .  A
C106        H115   1.083       .  S
C107        C108   1.400       .  A
C107        H116   1.084       .  S
C108        C114   1.408       .  A
C108        C109   1.415   1_545  A
C109        C111   1.402       .  A
C109        C110   1.410       .  A
C110        H117   1.084       .  S
C111        C112   1.399       .  A
C111        H118   1.084       .  S
C112        C113   1.407       .  A
C112        H119   1.083       .  S
C113        C114   1.405   1_565  A
C114        H120   1.084       .  S
C121        C122   1.408       .  A
C121        C126   1.409   1_565  A
C122        C123   1.393       .  A
C122        H131   1.083       .  S
C123        C124   1.397       .  A
C123        H132   1.084       .  S
C124        C130   1.404       .  A
C124        C125   1.416   1_565  A
C125        C127   1.404       .  A
C125        C126   1.413       .  A
C126        H133   1.084       .  S
C127        C128   1.403       .  A
C127        H134   1.084       .  S
C128        C129   1.407       .  A
C128        H135   1.083       .  S
C129        C130   1.402   1_545  A
C130        H136   1.084       .  S
C137        C138   1.408       .  A
C137        C142   1.402       .  A
C138        C139   1.399       .  A
C138        H147   1.083       .  S
C139        C140   1.402       .  A
C139        H148   1.084       .  S
C140        C146   1.409       .  A
C140        C141   1.416       .  A
C141        C143   1.398       .  A
C141        C142   1.404       .  A
C142        H149   1.084       .  S
C143        C144   1.393       .  A
C143        H150   1.084       .  S
C144        C145   1.407       .  A
C144        H151   1.083       .  S
C145        C146   1.406       .  A
C146        H152   1.084       .  S
C153        C154   1.408       .  A
C153        C158   1.405       .  A
C154        C155   1.397       .  A
C154        H163   1.083       .  S
C155        C156   1.400       .  A
C155        H164   1.084       .  S
C156        C162   1.408       .  A
C156        C157   1.416       .  A
C157        C159   1.400       .  A
C157        C158   1.408       .  A
C158        H165   1.084       .  S
C159        C160   1.397       .  A
C159        H166   1.084       .  S
C160        C161   1.408       .  A
C160        H167   1.083       .  S
C161        C162   1.406       .  A
C162        H168   1.084       .  S
C169        C170   1.405       .  A
C169        C174   1.405   1_545  A
C170        C171   1.398       .  A
C170        H179   1.083       .  S
C171        C172   1.403   1_545  A
C171        H180   1.083       .  S
C172        C178   1.405       .  A
C172        C173   1.413       .  A
C173        C175   1.400       .  A
C173        C174   1.403       .  A
C174        H181   1.084       .  S
C175        C176   1.395       .  A
C175        H182   1.083       .  S
C176        C177   1.408       .  A
C176        H183   1.083       .  S
C177        C178   1.408       .  A
C178        H184   1.083   1_565  S
C185        C186   1.404       .  A
C185        C190   1.405   1_545  A
C186        C187   1.397       .  A
C186        H195   1.083       .  S
C187        C188   1.403       .  A
C187        H196   1.083       .  S
C188        C194   1.402       .  A
C188        C189   1.413   1_545  A
C189        C191   1.401       .  A
C189        C190   1.402       .  A
C190        H197   1.084       .  S
C191        C192   1.396       .  A
C191        H198   1.083       .  S
C192        C193   1.407       .  A
C192        H199   1.083       .  S
C193        C194   1.408   1_565  A
C194        H200   1.083       .  S
C201        C202   1.405       .  A
C201        C206   1.409       .  A
C202        C203   1.398       .  A
C202        H211   1.083       .  S
C203        C204   1.403       .  A
C203        H212   1.083       .  S
C204        C210   1.405       .  A
C204        C205   1.413       .  A
C205        C207   1.403       .  A
C205        C206   1.406       .  A
C206        H213   1.084       .  S
C207        C208   1.399       .  A
C207        H214   1.083       .  S
C208        C209   1.405       .  A
C208        H215   1.083       .  S
C209        C210   1.408       .  A
C210        H216   1.084       .  S
C217        C218   1.407       .  A
C217        C222   1.408       .  A
C218        C219   1.397       .  A
C218        H227   1.083       .  S
C219        C220   1.400       .  A
C219        H228   1.084       .  S
C220        C226   1.407       .  A
C220        C221   1.415       .  A
C221        C223   1.402       .  A
C221        C222   1.409       .  A
C222        H229   1.084       .  S
C223        C224   1.400       .  A
C223        H230   1.084       .  S
C224        C225   1.407       .  A
C224        H231   1.083       .  S
C225        C226   1.405       .  A
C226        H232   1.084       .  S
C233        C234   1.405       .  A
C233        C238   1.406       .  A
C234        C235   1.399       .  A
C234        H243   1.083       .  S
C235        C236   1.403       .  A
C235        H244   1.083       .  S
C236        C242   1.406       .  A
C236        C237   1.414       .  A
C237        C239   1.401       .  A
C237        C238   1.406       .  A
C238        H245   1.084       .  S
C239        C240   1.397       .  A
C239        H246   1.084       .  S
C240        C241   1.408       .  A
C240        H247   1.083       .  S
C241        C242   1.408       .  A
C242        H248   1.084       .  S
C249        C250   1.408       .  A
C249        C254   1.408       .  A
C250        C251   1.399       .  A
C250        H259   1.083       .  S
C251        C252   1.402       .  A
C251        H260   1.084       .  S
C252        C258   1.405       .  A
C252        C253   1.413       .  A
C253        C255   1.402       .  A
C253        C254   1.402       .  A
C254        H261   1.083       .  S
C255        C256   1.396       .  A
C255        H262   1.083       .  S
C256        C257   1.404       .  A
C256        H263   1.083       .  S
C257        C258   1.408       .  A
C258        H264   1.084       .  S
C265        C266   1.404       .  A
C265        C270   1.408       .  A
C266        C267   1.398       .  A
C266        H275   1.083       .  S
C267        C268   1.403       .  A
C267        H276   1.083       .  S
C268        C274   1.405       .  A
C268        C269   1.412       .  A
C269        C271   1.403       .  A
C269        C270   1.408       .  A
C270        H277   1.084       .  S
C271        C272   1.401       .  A
C271        H278   1.084       .  S
C272        C273   1.410       .  A
C272        H279   1.082       .  S
C273        C274   1.412       .  A
C274        H280   1.082       .  S
C281        C282   1.406       .  A
C281        C286   1.406       .  A
C282        C283   1.400       .  A
C282        H291   1.083       .  S
C283        C284   1.403       .  A
C283        H292   1.084       .  S
C284        C290   1.409       .  A
C284        C285   1.414       .  A
C285        C287   1.400       .  A
C285        C286   1.406       .  A
C286        H293   1.084       .  S
C287        C288   1.397       .  A
C287        H294   1.084       .  S
C288        C289   1.409       .  A
C288        H295   1.083       .  S
C289        C290   1.410       .  A
C290        H296   1.083       .  S
C297        C302   1.410       .  A
C297        C610   1.407       .  A
C298        C299   1.399       .  A
C298        C609   1.407       .  A
C298        H307   1.083       .  S
C299        C300   1.402   1_455  A
C299        H308   1.084       .  S
C300        C306   1.406       .  A
C300        C613   1.412   1_654  A
C301        C303   1.402   1_455  A
C301        C302   1.406       .  A
C301        C612   1.412   1_455  A
C302        H309   1.084       .  S
C303        C304   1.398       .  A
C303        H310   1.084   1_655  S
C304        C305   1.408       .  A
C304        H311   1.083       .  S
C305        C618   1.409       .  A
C306        C617   1.409   1_554  A
C306        H312   1.084       .  S
C313        C314   1.410       .  A
C313        C318   1.413       .  A
C313        C585   1.501       .  S
C314        H319   1.081       .  S
C315        C316   1.404       .  A
C315        C617   1.494       .  S
C316        C317   1.408       .  A
C316        H320   1.082       .  S
C317        C601   1.497       .  S
C322        C323   1.406       .  A
C322        C327   1.405   1_556  A
C322        C561   1.491       .  S
C323        C324   1.406   1_556  A
C323        H328   1.082       .  S
C324        C609   1.493       .  S
C325        C326   1.408       .  A
C325        H329   1.083       .  S
C326        C553   1.491       .  S
C327        H330   1.083       .  S
O331        C334   1.264       .  A
O331       Cd336   2.475       .  S
C332        C497   1.474       .  S
C332        O341   1.266       .  A
C332        O337   1.267       .  A
O333        C339   1.265       .  A
O333       Cd336   2.497       .  S
C334        C481   1.478       .  S
C334        O342   1.264   1_545  A
C335        C537   1.483       .  S
C335        O340   1.268       .  A
C335        O338   1.264       .  A
Cd336       O343   2.469       .  S
Cd336       O342   2.471   1_545  S
Cd336       O341   2.446       .  S
Cd336       O337   2.461       .  S
Cd336       O340   2.498   1_545  S
Cd336       O338   2.464   1_545  S
C339        C521   1.482       .  S
C339        O343   1.262       .  A
O344        C347   1.267       .  A
O344       Cd349   2.475       .  S
C345        C569   1.478       .  S
C345        O354   1.264       .  A
C345        O350   1.266       .  A
O346        C352   1.269       .  A
O346       Cd349   2.477       .  S
C347        C545   1.480       .  S
C347        O355   1.266       .  A
C348        C529   1.484       .  S
C348        O353   1.265       .  A
C348        O351   1.261       .  A
Cd349       O356   2.460       .  S
Cd349       O355   2.467       .  S
Cd349       O354   2.467       .  S
Cd349       O350   2.470       .  S
Cd349       O353   2.517       .  S
Cd349       O351   2.461       .  S
C352        C513   1.482       .  S
C352        O356   1.265       .  A
O357        C360   1.272   1_545  A
O357       Cd362   2.501       .  S
C358        C441   1.481       .  S
C358        O367   1.266       .  A
C358        O363   1.272   1_545  A
O359        C365   1.273       .  A
O359       Cd362   2.476       .  S
C360        C425   1.483       .  S
C360        O368   1.265       .  A
C361        C473   1.483       .  S
C361        O366   1.273       .  A
C361        O364   1.266       .  A
Cd362       O369   2.423       .  S
Cd362       O368   2.444   1_545  S
Cd362       O367   2.458       .  S
Cd362       O363   2.480   1_545  S
Cd362       O366   2.496   1_545  S
Cd362       O364   2.424   1_545  S
C365        C449   1.480       .  S
C365        O369   1.266       .  A
O370        C373   1.269       .  A
O370       Cd375   2.477       .  S
C371        C577   1.482       .  S
C371        O380   1.265       .  A
C371        O376   1.268       .  A
O372        C378   1.272       .  A
O372       Cd375   2.513       .  S
C373        C593   1.483       .  S
C373        O381   1.267       .  A
C374        C465   1.484       .  S
C374        O379   1.271       .  A
C374        O377   1.264       .  A
Cd375       O382   2.410       .  S
Cd375       O381   2.470       .  S
Cd375       O380   2.469       .  S
Cd375       O376   2.478       .  S
Cd375       O379   2.508       .  S
Cd375       O377   2.432       .  S
C378        C457   1.482       .  S
C378        O382   1.264       .  A
C383        C384   1.407       .  A
C383        C489   1.489       .  S
C384        H389   1.083       .  S
C385        C386   1.403   1_554  A
C385        C401   1.483       .  S
C386        C387   1.402       .  A
C386        H390   1.083       .  S
C387        C388   1.403   1_556  A
C387        C505   1.486       .  S
C388        H391   1.082       .  S
C392        C393   1.415       .  A
C392        C397   1.406       .  A
C392        C417   1.493       .  S
C393        H398   1.083       .  S
C394        C395   1.406       .  A
C394        C433   1.491   1_545  S
C395        H399   1.083       .  S
C396        C397   1.400       .  A
C396        C409   1.487       .  S
C397        H400   1.083       .  S
C401        C406   1.406   1_554  A
C402        C403   1.399       .  A
C402        H411   1.083       .  S
C403        C404   1.403       .  A
C403        H412   1.084       .  S
C404        C410   1.403       .  A
C405        C407   1.400       .  A
C405        C406   1.400   1_545  A
C406        H413   1.085   1_565  S
C407        C408   1.395       .  A
C407        H414   1.084       .  S
C408        C409   1.406       .  A
C408        H415   1.083       .  S
C410        H416   1.084       .  S
C417        C418   1.410       .  A
C417        C422   1.407   1_545  A
C418        C419   1.396       .  A
C418        H427   1.083       .  S
C419        C420   1.400       .  A
C419        H428   1.084       .  S
C420        C426   1.408       .  A
C420        C421   1.415   1_545  A
C421        C423   1.402       .  A
C421        C422   1.410       .  A
C422        H429   1.084       .  S
C423        C424   1.399       .  A
C423        H430   1.084       .  S
C424        C425   1.407       .  A
C424        H431   1.083       .  S
C425        C426   1.405   1_565  A
C426        H432   1.084       .  S
C433        C434   1.408       .  A
C433        C438   1.409   1_565  A
C434        C435   1.393       .  A
C434        H443   1.083       .  S
C435        C436   1.397       .  A
C435        H444   1.084       .  S
C436        C442   1.404       .  A
C436        C437   1.416   1_565  A
C437        C439   1.404       .  A
C437        C438   1.413       .  A
C438        H445   1.084       .  S
C439        C440   1.403       .  A
C439        H446   1.084       .  S
C440        C441   1.407       .  A
C440        H447   1.083       .  S
C441        C442   1.402   1_545  A
C442        H448   1.084       .  S
C449        C450   1.408       .  A
C449        C454   1.402       .  A
C450        C451   1.399       .  A
C450        H459   1.083       .  S
C451        C452   1.402       .  A
C451        H460   1.084       .  S
C452        C458   1.409       .  A
C452        C453   1.416       .  A
C453        C455   1.398       .  A
C453        C454   1.404       .  A
C454        H461   1.084       .  S
C455        C456   1.393       .  A
C455        H462   1.084       .  S
C456        C457   1.407       .  A
C456        H463   1.083       .  S
C457        C458   1.406       .  A
C458        H464   1.084       .  S
C465        C466   1.408       .  A
C465        C470   1.405       .  A
C466        C467   1.397       .  A
C466        H475   1.083       .  S
C467        C468   1.400       .  A
C467        H476   1.084       .  S
C468        C474   1.408       .  A
C468        C469   1.416       .  A
C469        C471   1.400       .  A
C469        C470   1.408       .  A
C470        H477   1.084       .  S
C471        C472   1.397       .  A
C471        H478   1.084       .  S
C472        C473   1.408       .  A
C472        H479   1.083       .  S
C473        C474   1.406       .  A
C474        H480   1.084       .  S
C481        C482   1.405       .  A
C481        C486   1.405   1_545  A
C482        C483   1.398       .  A
C482        H491   1.083       .  S
C483        C484   1.403   1_545  A
C483        H492   1.083       .  S
C484        C490   1.405       .  A
C484        C485   1.413       .  A
C485        C487   1.400       .  A
C485        C486   1.403       .  A
C486        H493   1.084       .  S
C487        C488   1.395       .  A
C487        H494   1.083       .  S
C488        C489   1.408       .  A
C488        H495   1.083       .  S
C489        C490   1.408       .  A
C490        H496   1.083   1_565  S
C497        C498   1.404       .  A
C497        C502   1.405   1_545  A
C498        C499   1.397       .  A
C498        H507   1.083       .  S
C499        C500   1.403       .  A
C499        H508   1.083       .  S
C500        C506   1.402       .  A
C500        C501   1.413   1_545  A
C501        C503   1.401       .  A
C501        C502   1.402       .  A
C502        H509   1.084       .  S
C503        C504   1.396       .  A
C503        H510   1.083       .  S
C504        C505   1.407       .  A
C504        H511   1.083       .  S
C505        C506   1.408   1_565  A
C506        H512   1.083       .  S
C513        C514   1.405       .  A
C513        C518   1.409       .  A
C514        C515   1.398       .  A
C514        H523   1.083       .  S
C515        C516   1.403       .  A
C515        H524   1.083       .  S
C516        C522   1.405       .  A
C516        C517   1.413       .  A
C517        C519   1.403       .  A
C517        C518   1.406       .  A
C518        H525   1.084       .  S
C519        C520   1.399       .  A
C519        H526   1.083       .  S
C520        C521   1.405       .  A
C520        H527   1.083       .  S
C521        C522   1.408       .  A
C522        H528   1.084       .  S
C529        C530   1.407       .  A
C529        C534   1.408       .  A
C530        C531   1.397       .  A
C530        H539   1.083       .  S
C531        C532   1.400       .  A
C531        H540   1.084       .  S
C532        C538   1.407       .  A
C532        C533   1.415       .  A
C533        C535   1.402       .  A
C533        C534   1.409       .  A
C534        H541   1.084       .  S
C535        C536   1.400       .  A
C535        H542   1.084       .  S
C536        C537   1.407       .  A
C536        H543   1.083       .  S
C537        C538   1.405       .  A
C538        H544   1.084       .  S
C545        C546   1.405       .  A
C545        C550   1.406       .  A
C546        C547   1.399       .  A
C546        H555   1.083       .  S
C547        C548   1.403       .  A
C547        H556   1.083       .  S
C548        C554   1.406       .  A
C548        C549   1.414       .  A
C549        C551   1.401       .  A
C549        C550   1.406       .  A
C550        H557   1.084       .  S
C551        C552   1.397       .  A
C551        H558   1.084       .  S
C552        C553   1.408       .  A
C552        H559   1.083       .  S
C553        C554   1.408       .  A
C554        H560   1.084       .  S
C561        C562   1.408       .  A
C561        C566   1.408       .  A
C562        C563   1.399       .  A
C562        H571   1.083       .  S
C563        C564   1.402       .  A
C563        H572   1.084       .  S
C564        C570   1.405       .  A
C564        C565   1.413       .  A
C565        C567   1.402       .  A
C565        C566   1.402       .  A
C566        H573   1.083       .  S
C567        C568   1.396       .  A
C567        H574   1.083       .  S
C568        C569   1.404       .  A
C568        H575   1.083       .  S
C569        C570   1.408       .  A
C570        H576   1.084       .  S
C577        C578   1.404       .  A
C577        C582   1.408       .  A
C578        C579   1.398       .  A
C578        H587   1.083       .  S
C579        C580   1.403       .  A
C579        H588   1.083       .  S
C580        C586   1.405       .  A
C580        C581   1.412       .  A
C581        C583   1.403       .  A
C581        C582   1.408       .  A
C582        H589   1.084       .  S
C583        C584   1.401       .  A
C583        H590   1.084       .  S
C584        C585   1.410       .  A
C584        H591   1.082       .  S
C585        C586   1.412       .  A
C586        H592   1.082       .  S
C593        C594   1.406       .  A
C593        C598   1.406       .  A
C594        C595   1.400       .  A
C594        H603   1.083       .  S
C595        C596   1.403       .  A
C595        H604   1.084       .  S
C596        C602   1.409       .  A
C596        C597   1.414       .  A
C597        C599   1.400       .  A
C597        C598   1.406       .  A
C598        H605   1.084       .  S
C599        C600   1.397       .  A
C599        H606   1.084       .  S
C600        C601   1.409       .  A
C600        H607   1.083       .  S
C601        C602   1.410       .  A
C602        H608   1.083       .  S
C609        C614   1.410   1_554  A
C610        C611   1.399       .  A
C610        H619   1.083       .  S
C611        C612   1.402   1_455  A
C611        H620   1.084       .  S
C612        C618   1.406       .  A
C613        C615   1.402   1_455  A
C613        C614   1.406       .  A
C614        H621   1.084       .  S
C615        C616   1.398       .  A
C615        H622   1.084   1_655  S
C616        C617   1.408       .  A
C616        H623   1.083       .  S
C618        H624   1.084       .  S
