geometry optimzed in LAMMPS
_audit_creation_date              2020-11-30 
_audit_creation_method            'lammps2cif' 
_symmetry_space_group_name_H-M    'P1' 
_symmetry_Int_Tables_number       1 
_symmetry_cell_setting            triclinic 
loop_ 
_symmetry_equiv_pos_as_xyz 
  x,y,z 
_cell_length_a                    40.71236611 
_cell_length_b                    40.72093661195033 
_cell_length_c                    32.71872690163312 
_cell_angle_alpha                 89.95369322994766 
_cell_angle_beta                  90.00610386654122 
_cell_angle_gamma                 89.99811873803925 
loop_ 
_atom_site_label 
_atom_site_type_symbol 
_atom_site_fract_x 
_atom_site_fract_y 
_atom_site_fract_z 
_atom_site_charge 
N1          N  0.30468426  0.02941072  0.56545009    -0.27300
N2          N  0.33484471  0.03727345  0.55392607    -0.35200
C3          C  0.34449430  0.01658260  0.52417230     0.01000
C4          C  0.31897454  0.99516677  0.51602420     0.07100
C5          C  0.29406161  0.00407779  0.54251690    -0.06000
H6          H  0.36822958  0.01726755  0.50933219     0.07700
H7          H  0.27049845  0.99213504  0.54607150     0.08900
Cu8        Cu  0.36148376  0.07613752  0.57860746     0.44200
Cu9        Cu  0.28111554  0.05030759  0.61567574     0.42000
Cu10       Cu  0.33295837  0.10409030  0.67636793     0.43900
N11         N  0.38209810  0.11596841  0.60909754    -0.34700
N12         N  0.37252212  0.12525317  0.64592905    -0.28900
C13         C  0.39070959  0.15115840  0.65782606    -0.05000
C14         C  0.41240772  0.15887583  0.62670392     0.07200
C15         C  0.40623952  0.13611972  0.59623531     0.01000
H16         H  0.38777193  0.16394250  0.68655018     0.08600
H17         H  0.41858527  0.13414311  0.56708275     0.07700
N18         N  0.28831650  0.08524834  0.69657164    -0.36100
N19         N  0.26831678  0.06753581  0.67353575    -0.28300
C20         C  0.24060957  0.06134144  0.69474594    -0.03600
C21         C  0.24366919  0.07537906  0.73305144     0.05100
C22         C  0.27417569  0.09020708  0.73323370     0.03100
H23         H  0.22011496  0.04707318  0.68346607     0.08200
H24         H  0.28499876  0.10422767  0.75786737     0.07100
O25         O  0.51700816  0.19851197  0.59047977    -0.73000
O26         O  0.44611507  0.26758252  0.59407463    -0.73900
O27         O  0.51572590  0.26880268  0.59271567    -0.62600
O28         O  0.44734123  0.19701398  0.59241793    -0.71000
O29         O  0.44783828  0.19661391  0.66026591    -0.70500
O30         O  0.51697353  0.26714392  0.66053725    -0.61800
O31         O  0.44645449  0.26641497  0.66189705    -0.74300
O32         O  0.51817229  0.19772234  0.65830109    -0.73100
Cu33       Cu  0.48145758  0.23303132  0.59005840     1.04600
Cu34       Cu  0.48235503  0.23193703  0.66260650     1.04300
C35         C  0.52891567  0.18741124  0.62387728     0.93200
C36         C  0.43517820  0.27794789  0.62833459     0.92400
C37         C  0.52729953  0.27899557  0.62675104     0.84500
C38         C  0.43695592  0.18544955  0.62639551     0.90800
N39         N  0.68431000  0.05555592  0.68561238    -0.27300
N40         N  0.67584079  0.08534059  0.69778213    -0.35200
C41         C  0.69621333  0.09488726  0.72793955     0.01000
C42         C  0.71804000  0.06959303  0.73557329     0.07100
C43         C  0.70971703  0.04499744  0.70842264    -0.06000
H44         H  0.69513612  0.11840698  0.74323595     0.07700
H45         H  0.72218920  0.02178592  0.70423099     0.08900
Cu46       Cu  0.63692828  0.11130052  0.67245307     0.44200
Cu47       Cu  0.66440777  0.03282034  0.63443690     0.42000
Cu48       Cu  0.61119969  0.08377710  0.57204414     0.43900
N49         N  0.59784010  0.13181187  0.64062537    -0.34700
N50         N  0.58924447  0.12295462  0.60322304    -0.28900
C51         C  0.56360479  0.14159909  0.59119025    -0.05000
C52         C  0.55545225  0.16275362  0.62280623     0.07200
C53         C  0.57761894  0.15577830  0.65362583     0.01000
H54         H  0.55129966  0.13935805  0.56203584     0.08600
H55         H  0.57914863  0.16746694  0.68322709     0.07700
N56         N  0.63166170  0.03942348  0.55206250    -0.36100
N57         N  0.64928370  0.01991877  0.57589071    -0.28300
C58         C  0.65641599  0.99212557  0.55539829    -0.03600
C59         C  0.64310555  0.99445465  0.51663217     0.05100
C60         C  0.62766979  0.02472995  0.51548477     0.03100
H61         H  0.67041809  0.97182987  0.56773893     0.08200
H62         H  0.61356662  0.03480677  0.49041294     0.07100
N63         N  0.31460283  0.44567164  0.57550110    -0.27300
N64         N  0.33749322  0.42832368  0.55658292    -0.35200
C65         C  0.34470226  0.44287682  0.52076344     0.01000
C66         C  0.32536941  0.47054154  0.51697500     0.07100
C67         C  0.30660099  0.47171041  0.55212058    -0.06000
H68         H  0.36272692  0.43398722  0.49914553     0.07700
H69         H  0.28843849  0.49001647  0.56006478     0.08900
Cu70       Cu  0.35827533  0.38567468  0.58001385     0.44200
Cu71       Cu  0.29462099  0.43236705  0.63155334     0.42000
Cu72       Cu  0.32678827  0.35597442  0.67525499     0.43900
N73         N  0.37800705  0.34539134  0.61035591    -0.34700
N74         N  0.36752044  0.33522595  0.64644628    -0.28900
C75         C  0.38645813  0.30992700  0.65889425    -0.05000
C76         C  0.40956357  0.30359360  0.62878113     0.07200
C77         C  0.40337559  0.32648699  0.59846286     0.01000
H78         H  0.38322849  0.29672868  0.68729735     0.08600
H79         H  0.41668971  0.32953908  0.57011356     0.07700
N80         N  0.28551775  0.38079341  0.69705480    -0.36100
N81         N  0.27515296  0.40944034  0.68286814    -0.28300
C82         C  0.24889420  0.41918670  0.70475553    -0.03600
C83         C  0.24201392  0.39520694  0.73338535     0.05100
C84         C  0.26552932  0.37117930  0.72757726     0.03100
H85         H  0.23516227  0.44150594  0.69927803     0.08200
H86         H  0.26819733  0.34857413  0.74464922     0.07100
N87         N  0.69181004  0.40381733  0.67873355    -0.27300
N88         N  0.67940545  0.37683220  0.69522425    -0.35200
C89         C  0.69772548  0.36837484  0.72786188     0.01000
C90         C  0.72227284  0.39152592  0.73249714     0.07100
C91         C  0.71777480  0.41367470  0.70103658    -0.06000
H92         H  0.69318606  0.34726477  0.74714696     0.07700
H93         H  0.73272686  0.43495139  0.69425296     0.08900
Cu94       Cu  0.63734897  0.35341279  0.67364046     0.44200
Cu95       Cu  0.67438376  0.42534468  0.62533803     0.42000
Cu96       Cu  0.60222322  0.38864846  0.58169841     0.43900
N97         N  0.59556442  0.33502769  0.64488105    -0.34700
N98         N  0.58372455  0.34711537  0.61035493    -0.28900
C99         C  0.55790809  0.32885828  0.59837612    -0.05000
C100        C  0.55285735  0.30450778  0.62713579     0.07200
C101        C  0.57705277  0.30918581  0.65629175     0.01000
H102        H  0.54354484  0.33336397  0.57114365     0.08600
H103        H  0.58129579  0.29450341  0.68333894     0.07700
N104        N  0.62506306  0.42968045  0.55708843    -0.36100
N105        N  0.65253381  0.44226463  0.57189539    -0.28300
C106        C  0.66223539  0.46721032  0.54767295    -0.03600
C107        C  0.63940543  0.47072954  0.51668940     0.05100
C108        C  0.61608696  0.44674978  0.52368000     0.03100
H109        H  0.68390848  0.48203839  0.55268789     0.08200
H110        H  0.59454587  0.44164838  0.50538886     0.07100
N111        N  0.26815201  0.89825272  0.32662523    -0.27300
N112        N  0.28751482  0.87967655  0.30381549    -0.35200
C113        C  0.27306335  0.87464178  0.26736065     0.01000
C114        C  0.24303360  0.89040091  0.26743038     0.07100
C115        C  0.24056407  0.90502972  0.30545032    -0.06000
H116        H  0.28334626  0.85997748  0.24295235     0.07700
H117        H  0.22051318  0.91997073  0.31661110     0.08900
Cu118      Cu  0.33173630  0.86003345  0.32406519     0.44200
Cu119      Cu  0.28144811  0.91530110  0.38439099     0.42000
Cu120      Cu  0.36029266  0.88701913  0.42284319     0.43900
N121        N  0.37129536  0.83881325  0.35432061    -0.34700
N122        N  0.38082816  0.84771989  0.39132565    -0.28900
C123        C  0.40514080  0.82763381  0.40375701    -0.05000
C124        C  0.41145929  0.80533360  0.37285525     0.07200
C125        C  0.38968280  0.81321582  0.34190305     0.01000
H126        H  0.41750383  0.82935640  0.43292572     0.08600
H127        H  0.38683870  0.80076725  0.31293615     0.07700
N128        N  0.33421064  0.92598206  0.44806822    -0.36100
N129        N  0.30454302  0.93487399  0.43576766    -0.28300
C130        C  0.29419067  0.96020852  0.45887711    -0.03600
C131        C  0.31878914  0.96803294  0.48634362     0.05100
C132        C  0.34384247  0.94598187  0.47855853     0.03100
H133        H  0.27112822  0.97297155  0.45470538     0.08200
H134        H  0.36731167  0.94452621  0.49396632     0.07100
O135        O  0.44599233  0.69701078  0.40518181    -0.73000
O136        O  0.51626873  0.76655169  0.40827765    -0.73900
O137        O  0.44672689  0.76743847  0.40672297    -0.62600
O138        O  0.51555487  0.69630908  0.40620643    -0.71000
O139        O  0.51660856  0.69783712  0.33837423    -0.70500
O140        O  0.44700114  0.76795518  0.33886249    -0.61800
O141        O  0.51733219  0.76733327  0.34044724    -0.74300
O142        O  0.44605210  0.69818525  0.33735159    -0.73100
Cu143      Cu  0.48106291  0.73177778  0.40894159     1.04600
Cu144      Cu  0.48174154  0.73285889  0.33637735     1.04300
C145        C  0.43496465  0.68661566  0.37098975     0.93200
C146        C  0.52801945  0.77774292  0.37485498     0.92400
C147        C  0.43615781  0.77896392  0.37282989     0.84500
C148        C  0.52707974  0.68609952  0.37216636     0.90800
N149        N  0.68498408  0.90834600  0.31511843    -0.27300
N150        N  0.67605068  0.87877049  0.30268244    -0.35200
C151        C  0.69595670  0.86924719  0.27204655     0.01000
C152        C  0.71796803  0.89434974  0.26432240     0.07100
C153        C  0.71024514  0.91881491  0.29196642    -0.06000
H154        H  0.69435820  0.84591517  0.25638125     0.07700
H155        H  0.72296183  0.94189480  0.29613862     0.08900
Cu156      Cu  0.63685187  0.85322876  0.32788561     0.44200
Cu157      Cu  0.66545521  0.93088974  0.36675643     0.42000
Cu158      Cu  0.61050925  0.88063151  0.42806311     0.43900
N159        N  0.59711534  0.83321288  0.35886731    -0.34700
N160        N  0.58828118  0.84202433  0.39619465    -0.28900
C161        C  0.56240325  0.82356369  0.40779982    -0.05000
C162        C  0.55435967  0.80256968  0.37599022     0.07200
C163        C  0.57680590  0.80946151  0.34547196     0.01000
H164        H  0.54998801  0.82569076  0.43689324     0.08600
H165        H  0.57859366  0.79772715  0.31592204     0.07700
N166        N  0.63158484  0.92448575  0.44860082    -0.36100
N167        N  0.64985774  0.94374136  0.42521859    -0.28300
C168        C  0.65711876  0.97137817  0.44597332    -0.03600
C169        C  0.64321585  0.96919039  0.48443107     0.05100
C170        C  0.62729944  0.93916507  0.48513392     0.03100
H171        H  0.67154553  0.99151039  0.43398816     0.08200
H172        H  0.61262700  0.92929374  0.50981926     0.07100
N173        N  0.31512760  0.51848094  0.42408812    -0.27300
N174        N  0.33781831  0.53599288  0.44314714    -0.35200
C175        C  0.34473290  0.52168282  0.47921370     0.01000
C176        C  0.32538901  0.49402419  0.48302141     0.07100
C177        C  0.30695862  0.49258697  0.44761612    -0.06000
H178        H  0.36260202  0.53070146  0.50095149     0.07700
H179        H  0.28894482  0.47416434  0.43956506     0.08900
Cu180      Cu  0.35868904  0.57854517  0.41956398     0.44200
Cu181      Cu  0.29555271  0.53138279  0.36767726     0.42000
Cu182      Cu  0.32658194  0.60850814  0.32483305     0.43900
N183        N  0.37812858  0.61899354  0.38927592    -0.34700
N184        N  0.36734900  0.62928391  0.35337456    -0.28900
C185        C  0.38612075  0.65466676  0.34084830    -0.05000
C186        C  0.40943915  0.66091658  0.37071541     0.07200
C187        C  0.40354014  0.63790998  0.40098625     0.01000
H188        H  0.38264586  0.66795968  0.31255865     0.08600
H189        H  0.41708029  0.63478611  0.42916087     0.07700
N190        N  0.28566052  0.58332686  0.30287362    -0.36100
N191        N  0.27578304  0.55436935  0.31659788    -0.28300
C192        C  0.24962632  0.54446553  0.29462892    -0.03600
C193        C  0.24230919  0.56867412  0.26646664     0.05100
C194        C  0.26545527  0.59298690  0.27261120     0.03100
H195        H  0.23622190  0.52190230  0.29979598     0.08200
H196        H  0.26772219  0.61583269  0.25595133     0.07100
N197        N  0.69132143  0.56066632  0.32034747    -0.27300
N198        N  0.67889661  0.58762180  0.30379342    -0.35200
C199        C  0.69719487  0.59603007  0.27111591     0.01000
C200        C  0.72175289  0.57287903  0.26650338     0.07100
C201        C  0.71727606  0.55078331  0.29803709    -0.06000
H202        H  0.69268527  0.61715987  0.25185235     0.07700
H203        H  0.73229978  0.52957832  0.30493085     0.08900
Cu204      Cu  0.63695615  0.61122537  0.32547297     0.44200
Cu205      Cu  0.67409083  0.53937572  0.37402818     0.42000
Cu206      Cu  0.60239346  0.57695301  0.41810635     0.43900
N207        N  0.59533141  0.62997688  0.35424007    -0.34700
N208        N  0.58369130  0.61821878  0.38903966    -0.28900
C209        C  0.55792206  0.63656600  0.40094479    -0.05000
C210        C  0.55268912  0.66063505  0.37186469     0.07200
C211        C  0.57673577  0.65569975  0.34258719     0.01000
H212        H  0.54370627  0.63230905  0.42835526     0.08600
H213        H  0.58081452  0.67011795  0.31528317     0.07700
N214        N  0.62523526  0.53599755  0.44294240    -0.36100
N215        N  0.65248006  0.52306397  0.42794742    -0.28300
C216        C  0.66211145  0.49816442  0.45229621    -0.03600
C217        C  0.63947934  0.49505430  0.48356729     0.05100
C218        C  0.61634226  0.51921263  0.47660495     0.03100
H219        H  0.68355621  0.48304144  0.44712846     0.08200
H220        H  0.59493157  0.52456849  0.49501432     0.07100
O221        O  0.94538518  0.76676133  0.15544773    -0.73000
O222        O  0.01844138  0.69980623  0.15506053    -0.73900
O223        O  0.01579946  0.76927490  0.15615439    -0.62600
O224        O  0.94810689  0.69756553  0.15491401    -0.71000
O225        O  0.94817732  0.69779536  0.08703855    -0.70500
O226        O  0.01605723  0.76987517  0.08829625    -0.61800
O227        O  0.01789934  0.69967737  0.08720111    -0.74300
O228        O  0.94636572  0.76775743  0.08760348    -0.73100
Cu229      Cu  0.98195873  0.73331970  0.15776237     1.04600
Cu230      Cu  0.98217066  0.73378741  0.08516656     1.04300
C231        C  0.93432949  0.77767128  0.12147056     0.93200
C232        C  0.02957352  0.68917185  0.12100753     0.92400
C233        C  0.02663161  0.78085184  0.12245857     0.84500
C234        C  0.93718149  0.68668991  0.12093222     0.90800
N235        N  0.16360640  0.93272871  0.06223583    -0.27300
N236        N  0.13415444  0.92426405  0.04877988    -0.35200
C237        C  0.12501856  0.94522621  0.01906026     0.01000
C238        C  0.15018102  0.96748875  0.01302943     0.07100
C239        C  0.17433818  0.95878571  0.04066912    -0.06000
H240        H  0.10163956  0.94454285  0.00336341     0.07700
H241        H  0.19712799  0.97164401  0.04639044     0.08900
Cu242      Cu  0.10705140  0.88553769  0.07266104     0.44200
Cu243      Cu  0.18507969  0.91256186  0.11419577     0.42000
Cu244      Cu  0.13117689  0.86076072  0.17428627     0.43900
N245        N  0.08425237  0.84783997  0.10464110    -0.34700
N246        N  0.09218340  0.83966962  0.14250637    -0.28900
C247        C  0.07258024  0.81494793  0.15486759    -0.05000
C248        C  0.05162298  0.80696028  0.12306824     0.07200
C249        C  0.05974938  0.82823183  0.09168146     0.01000
H250        H  0.07408157  0.80309176  0.18439456     0.08600
H251        H  0.04861137  0.82947375  0.06171678     0.07700
N252        N  0.17506696  0.88020081  0.19630322    -0.36100
N253        N  0.19571863  0.89731750  0.17344827    -0.28300
C254        C  0.22287211  0.90395349  0.19544901    -0.03600
C255        C  0.21882369  0.89089470  0.23412660     0.05100
C256        C  0.18830792  0.87601952  0.23368326     0.03100
H257        H  0.24390974  0.91743456  0.18419132     0.08200
H258        H  0.17708250  0.86215290  0.25819640     0.07100
N259        N  0.14740748  0.52022291  0.07489360    -0.27300
N260        N  0.12926780  0.53973650  0.05169628    -0.35200
C261        C  0.12423499  0.52510028  0.01533366     0.01000
C262        C  0.13957283  0.49483288  0.01592522     0.07100
C263        C  0.15389129  0.49241175  0.05412574    -0.06000
H264        H  0.10968073  0.53532277  0.99075724     0.07700
H265        H  0.16823322  0.47210491  0.06581324     0.08900
Cu266      Cu  0.10989672  0.58422099  0.07173575     0.44200
Cu267      Cu  0.16389223  0.53317206  0.13296220     0.42000
Cu268      Cu  0.13721638  0.61271038  0.17047283     0.43900
N269        N  0.08919941  0.62418329  0.10191728    -0.34700
N270        N  0.09836906  0.63373466  0.13881427    -0.28900
C271        C  0.07854990  0.65820318  0.15134635    -0.05000
C272        C  0.05611262  0.66464136  0.12062911     0.07200
C273        C  0.06364813  0.64274655  0.08967513     0.01000
H274        H  0.08042721  0.67044793  0.18056441     0.08600
H275        H  0.05089801  0.63985614  0.06090716     0.07700
N276        N  0.17469290  0.58549215  0.19695276    -0.36100
N277        N  0.18290593  0.55554858  0.18505487    -0.28300
C278        C  0.20740904  0.54446984  0.20903787    -0.03600
C279        C  0.21536211  0.56888893  0.23664144     0.05100
C280        C  0.19431303  0.59458605  0.22804352     0.03100
H281        H  0.21968070  0.52110782  0.20523509     0.08200
H282        H  0.19338551  0.61818766  0.24315546     0.07100
N283        N  0.81498541  0.94577991  0.07574136    -0.27300
N284        N  0.83332290  0.92611558  0.05301674    -0.35200
C285        C  0.83796414  0.94003232  0.01618966     0.01000
C286        C  0.82211364  0.96994996  0.01588436     0.07100
C287        C  0.80798172  0.97304740  0.05409801    -0.06000
H288        H  0.85256916  0.92953138  0.99186695     0.07700
H289        H  0.79334414  0.99335993  0.06514679     0.08900
Cu290      Cu  0.85332362  0.88216603  0.07319893     0.44200
Cu291      Cu  0.79822391  0.93338078  0.13384128     0.42000
Cu292      Cu  0.82472777  0.85268064  0.16931814     0.43900
N293        N  0.87415961  0.84208542  0.10249921    -0.34700
N294        N  0.86444926  0.83190560  0.13889767    -0.28900
C295        C  0.88436558  0.80746880  0.15142107    -0.05000
C296        C  0.90744639  0.80182484  0.12115134     0.07200
C297        C  0.90013295  0.82406983  0.09049448     0.01000
H298        H  0.88215463  0.79474050  0.18030561     0.08600
H299        H  0.91331914  0.82759036  0.06213628     0.07700
N300        N  0.78623180  0.87911852  0.19504799    -0.36100
N301        N  0.77817778  0.90938387  0.18418161    -0.28300
C302        C  0.75318070  0.91973518  0.20785664    -0.03600
C303        C  0.74470460  0.89452741  0.23414253     0.05100
C304        C  0.76600004  0.86912643  0.22511545     0.03100
H305        H  0.74113713  0.94330114  0.20492820     0.08200
H306        H  0.76692006  0.84523361  0.23955113     0.07100
N307        N  0.77936788  0.55741636  0.18363151    -0.27300
N308        N  0.79040960  0.58593239  0.19728913    -0.35200
C309        C  0.77144172  0.59591551  0.22859649     0.01000
C310        C  0.74773834  0.57228619  0.23539608     0.07100
C311        C  0.75350515  0.54814385  0.20658052    -0.06000
H312        H  0.77486151  0.61854005  0.24537812     0.07700
H313        H  0.73933558  0.52600412  0.20182319     0.08900
Cu314      Cu  0.83077882  0.61003394  0.17284465     0.44200
Cu315      Cu  0.79790987  0.53426486  0.13169973     0.42000
Cu316      Cu  0.85374381  0.58437435  0.07141071     0.43900
N317        N  0.86939005  0.63064549  0.14039603    -0.34700
N318        N  0.87672355  0.62246103  0.10238311    -0.28900
C319        C  0.90199312  0.64109719  0.08944048    -0.05000
C320        C  0.91121538  0.66163360  0.12108026     0.07200
C321        C  0.89010079  0.65431909  0.15291655     0.01000
H322        H  0.91313804  0.63941371  0.05952169     0.08600
H323        H  0.88944025  0.66575775  0.18272502     0.07700
N324        N  0.83444083  0.53997103  0.05153117    -0.36100
N325        N  0.81578695  0.52070556  0.07441573    -0.28300
C326        C  0.80966340  0.49275984  0.05376668    -0.03600
C327        C  0.82476190  0.49487054  0.01601018     0.05100
C328        C  0.84018853  0.52506373  0.01552658     0.03100
H329        H  0.79488120  0.47265252  0.06512135     0.08200
H330        H  0.85511453  0.53515119  0.99121100     0.07100
O331        O  0.01814916  0.26470294  0.84535867    -0.73000
O332        O  0.94536493  0.19763397  0.84442479    -0.73900
O333        O  0.94779674  0.26681630  0.84538963    -0.62600
O334        O  0.01570054  0.19522977  0.84396843    -0.71000
O335        O  0.01579360  0.19432965  0.91181840    -0.70500
O336        O  0.94785058  0.26645091  0.91325985    -0.61800
O337        O  0.94613674  0.19648914  0.91227792    -0.74300
O338        O  0.01762310  0.26458747  0.91321992    -0.73100
Cu339      Cu  0.98178310  0.23114554  0.84242379     1.04600
Cu340      Cu  0.98189393  0.23045367  0.91501845     1.04300
C341        C  0.02928764  0.27520972  0.87946426     0.93200
C342        C  0.93425988  0.18661576  0.87830526     0.92400
C343        C  0.93682258  0.27759905  0.87939888     0.84500
C344        C  0.02642590  0.18346577  0.87762584     0.90800
N345        N  0.14683170  0.44432190  0.92455742    -0.27300
N346        N  0.12890081  0.42485464  0.94806646    -0.36800
C347        C  0.12408574  0.43962873  0.98438696     0.01000
C348        C  0.13935179  0.46992592  0.98344828     0.07100
C349        C  0.15339416  0.47222804  0.94508670    -0.06000
H350        H  0.10981445  0.42942849  0.00922981     0.07700
H351        H  0.16770361  0.49247086  0.93317515     0.08900
Cu352      Cu  0.10968742  0.38011652  0.92867231     0.44200
Cu353      Cu  0.16327443  0.43115856  0.86654191     0.42000
Cu354      Cu  0.13678523  0.35165937  0.82971981     0.43900
N355        N  0.08901207  0.34009705  0.89859883    -0.34700
N356        N  0.09803766  0.33064777  0.86160509    -0.28900
C357        C  0.07816517  0.30622566  0.84908639    -0.05000
C358        C  0.05585383  0.29969792  0.87990461     0.07200
C359        C  0.06351264  0.32149281  0.91091914     0.01000
H360        H  0.07991056  0.29408131  0.81979109     0.08600
H361        H  0.05085203  0.32432151  0.93975592     0.07700
N362        N  0.17439073  0.37859552  0.80304582    -0.36100
N363        N  0.18256173  0.40859983  0.81472608    -0.28300
C364        C  0.20711459  0.41956647  0.79074377    -0.03600
C365        C  0.21515273  0.39500658  0.76336045     0.05100
C366        C  0.19409006  0.36934181  0.77209690     0.03100
H367        H  0.21931709  0.44298364  0.79434860     0.08200
H368        H  0.19316383  0.34568394  0.75712166     0.07100
N369        N  0.16369621  0.03153785  0.93722974    -0.27300
N370        N  0.13385032  0.03929668  0.95000079    -0.35200
C371        C  0.12460915  0.01786358  0.97913913     0.01000
C372        C  0.15007787  0.99602179  0.98551878     0.07100
C373        C  0.17454898  0.00546737  0.95869616    -0.06000
H374        H  0.10100697  0.01803150  0.99432798     0.07700
H375        H  0.19773372  0.99317574  0.95352685     0.08900
Cu376      Cu  0.10644623  0.07794074  0.92635426     0.44200
Cu377      Cu  0.18575935  0.05276298  0.88627935     0.42000
Cu378      Cu  0.13120186  0.10380918  0.82574495     0.43900
N379        N  0.08371064  0.11601886  0.89493211    -0.34700
N380        N  0.09190481  0.12458699  0.85729804    -0.28900
C381        C  0.07246577  0.14951750  0.84517124    -0.05000
C382        C  0.05134217  0.15725444  0.87689699     0.07200
C383        C  0.05919605  0.13558637  0.90799757     0.01000
H384        H  0.07421586  0.16171219  0.81587969     0.08600
H385        H  0.04788268  0.13406778  0.93783784     0.07700
N386        N  0.17556414  0.08509532  0.80415306    -0.36100
N387        N  0.19650037  0.06850294  0.82722182    -0.28300
C388        C  0.22383790  0.06230969  0.80536485    -0.03600
C389        C  0.21960694  0.07506769  0.76655025     0.05100
C390        C  0.18877890  0.08929182  0.76676410     0.03100
H391        H  0.24503579  0.04913348  0.81672164     0.08200
H392        H  0.17726018  0.10266605  0.74203430     0.07100
N393        N  0.81595498  0.01805914  0.92255820    -0.27300
N394        N  0.83337232  0.03811133  0.94586729    -0.35200
C395        C  0.83746204  0.02433959  0.98287983     0.01000
C396        C  0.82221425  0.99411004  0.98270014     0.07100
C397        C  0.80901924  0.99068414  0.94401145    -0.06000
H398        H  0.85132684  0.03514759  0.00766332     0.07700
H399        H  0.79503998  0.97007446  0.93250552     0.08900
Cu400      Cu  0.85303777  0.08230963  0.92614989     0.44200
Cu401      Cu  0.80005605  0.03015465  0.86399404     0.42000
Cu402      Cu  0.82550067  0.11123433  0.82919777     0.43900
N403        N  0.87410694  0.12219617  0.89679900    -0.34700
N404        N  0.86482111  0.13211904  0.86011933    -0.28900
C405        C  0.88482097  0.15650451  0.84771626    -0.05000
C406        C  0.90750107  0.16238403  0.87836288     0.07200
C407        C  0.89989899  0.14032611  0.90909985     0.01000
H408        H  0.88291474  0.16905251  0.81867608     0.08600
H409        H  0.91274760  0.13702793  0.93774095     0.07700
N410        N  0.78718898  0.08467053  0.80346467    -0.36100
N411        N  0.77953587  0.05424064  0.81403449    -0.28300
C412        C  0.75429987  0.04392728  0.79074341    -0.03600
C413        C  0.74525054  0.06933597  0.76506129     0.05100
C414        C  0.76647823  0.09480576  0.77398650     0.03100
H415        H  0.74241956  0.02027787  0.79364931     0.08200
H416        H  0.76696004  0.11887558  0.75997927     0.07100
N417        N  0.77915131  0.40699680  0.81610352    -0.27300
N418        N  0.79036236  0.37852114  0.80251670    -0.35200
C419        C  0.77173444  0.36859256  0.77087674     0.01000
C420        C  0.74808657  0.39220939  0.76379077     0.07100
C421        C  0.75351182  0.41628877  0.79278171    -0.06000
H422        H  0.77532050  0.34598718  0.75410968     0.07700
H423        H  0.73923896  0.43838024  0.79741874     0.08900
Cu424      Cu  0.83045544  0.35428222  0.82738567     0.44200
Cu425      Cu  0.79717931  0.43017608  0.86828499     0.42000
Cu426      Cu  0.85343228  0.38028307  0.92847783     0.43900
N427        N  0.86893746  0.33357088  0.85992883    -0.34700
N428        N  0.87634118  0.34190540  0.89786740    -0.28900
C429        C  0.90161843  0.32327570  0.91085419    -0.05000
C430        C  0.91076897  0.30259803  0.87930063     0.07200
C431        C  0.88958852  0.30981773  0.84749372     0.01000
H432        H  0.91286070  0.32510006  0.94070448     0.08600
H433        H  0.88888928  0.29830988  0.81772766     0.07700
N434        N  0.83420598  0.42483376  0.94812508    -0.36100
N435        N  0.81536054  0.44398257  0.92531887    -0.28300
C436        C  0.80935682  0.47202112  0.94584111    -0.03600
C437        C  0.82475105  0.47009561  0.98343349     0.05100
C438        C  0.84019514  0.43991343  0.98395442     0.03100
H439        H  0.79443351  0.49204510  0.93453633     0.08200
H440        H  0.85525615  0.42992357  0.00820732     0.07100
loop_ 
_geom_bond_atom_site_label_1 
_geom_bond_atom_site_label_2 
_geom_bond_distance 
_geom_bond_site_symmetry_2 
_ccdc_geom_bond_type 
N1            N2   1.324       .  A
N1            C5   1.347       .  A
N1           Cu9   2.085       .  S
N2            C3   1.347       .  A
N2           Cu8   2.082       .  S
C3            C4   1.383   1_545  A
C3            H6   1.082       .  S
C4            C5   1.383   1_565  A
C4          C131   1.472       .  S
C5            H7   1.082   1_545  S
Cu8          N11   2.082       .  S
Cu9          N19   2.086       .  S
Cu10         N12   2.080       .  S
Cu10         N18   2.080       .  S
N11          N12   1.322       .  A
N11          C15   1.348       .  A
N12          C13   1.347       .  A
C13          C14   1.384       .  A
C13          H16   1.081       .  S
C14          C15   1.385       .  A
C14          C38   1.473       .  S
C15          H17   1.081       .  S
N18          N19   1.324       .  A
N18          C22   1.346       .  A
N19          C20   1.348       .  A
C20          C21   1.384       .  A
C20          H23   1.082       .  S
C21          C22   1.381       .  A
C21         C389   1.470       .  S
C22          H24   1.082       .  S
O25         Cu33   2.018       .  S
O25          C35   1.278       .  A
O26         Cu33   2.017       .  S
O26          C36   1.278       .  A
O27         Cu33   2.019       .  S
O27          C37   1.279       .  A
O28         Cu33   2.021       .  S
O28          C38   1.279       .  A
O29         Cu34   2.012       .  S
O29          C38   1.277       .  A
O30         Cu34   2.012       .  S
O30          C37   1.277       .  A
O31         Cu34   2.027       .  S
O31          C36   1.279       .  A
O32         Cu34   2.022       .  S
O32          C35   1.279       .  A
Cu33        Cu34   2.374       .  S
C35          C52   1.475       .  S
C36          C76   1.476       .  S
C37         C100   1.470       .  S
N39          N40   1.323       .  A
N39          C43   1.346       .  A
N39         Cu47   2.078       .  S
N40          C41   1.347       .  A
N40         Cu46   2.077       .  S
C41          C42   1.383       .  A
C41          H44   1.082       .  S
C42          C43   1.381       .  A
C42         C413   1.469       .  S
C43          H45   1.082       .  S
Cu46         N49   2.077       .  S
Cu47         N57   2.080       .  S
Cu48         N50   2.095       .  S
Cu48         N56   2.094       .  S
N49          N50   1.323       .  A
N49          C53   1.346       .  A
N50          C51   1.349       .  A
C51          C52   1.387       .  A
C51          H54   1.081       .  S
C52          C53   1.382       .  A
C53          H55   1.081       .  S
N56          N57   1.324       .  A
N56          C60   1.348       .  A
N57          C58   1.348   1_545  A
C58          C59   1.382       .  A
C58          H61   1.082       .  S
C59          C60   1.384   1_565  A
C59         C169   1.473       .  S
C60          H62   1.082       .  S
N63          N64   1.323       .  A
N63          C67   1.347       .  A
N63         Cu71   2.078       .  S
N64          C65   1.345       .  A
N64         Cu70   2.078       .  S
C65          C66   1.380       .  A
C65          H68   1.082       .  S
C66          C67   1.382       .  A
C66         C176   1.465       .  S
C67          H69   1.082       .  S
Cu70         N73   2.078       .  S
Cu71         N81   2.078       .  S
Cu72         N74   2.087       .  S
Cu72         N80   2.087       .  S
N73          N74   1.322       .  A
N73          C77   1.346       .  A
N74          C75   1.349       .  A
C75          C76   1.387       .  A
C75          H78   1.081       .  S
C76          C77   1.384       .  A
C77          H79   1.081       .  S
N80          N81   1.324       .  A
N80          C84   1.346       .  A
N81          C82   1.347       .  A
C82          C83   1.381       .  A
C82          H85   1.082       .  S
C83          C84   1.382       .  A
C83         C365   1.469       .  S
C84          H86   1.082       .  S
N87          N88   1.324       .  A
N87          C91   1.346       .  A
N87         Cu95   2.079       .  S
N88          C89   1.347       .  A
N88         Cu94   2.083       .  S
C89          C90   1.382       .  A
C89          H92   1.082       .  S
C90          C91   1.380       .  A
C90         C420   1.467       .  S
C91          H93   1.082       .  S
Cu94         N97   2.083       .  S
Cu95        N105   2.079       .  S
Cu96         N98   2.075       .  S
Cu96        N104   2.074       .  S
N97          N98   1.323       .  A
N97         C101   1.347       .  A
N98          C99   1.346       .  A
C99         C100   1.382       .  A
C99         H102   1.081       .  S
C100        C101   1.384       .  A
C101        H103   1.081       .  S
N104        N105   1.322       .  A
N104        C108   1.345       .  A
N105        C106   1.347       .  A
C106        C107   1.383       .  A
C106        H109   1.082       .  S
C107        C108   1.381       .  A
C107        C217   1.468       .  S
C108        H110   1.082       .  S
N111        N112   1.323       .  A
N111        C115   1.348       .  A
N111       Cu119   2.085       .  S
N112        C113   1.346       .  A
N112       Cu118   2.078       .  S
C113        C114   1.381       .  A
C113        H116   1.082       .  S
C114        C115   1.383       .  A
C114        C255   1.469       .  S
C115        H117   1.082       .  S
Cu118       N121   2.078       .  S
Cu119       N129   2.085       .  S
Cu120       N122   2.080       .  S
Cu120       N128   2.080       .  S
N121        N122   1.322       .  A
N121        C125   1.346       .  A
N122        C123   1.347       .  A
C123        C124   1.384       .  A
C123        H126   1.081       .  S
C124        C125   1.383       .  A
C124        C147   1.471       .  S
C125        H127   1.081       .  S
N128        N129   1.323       .  A
N128        C132   1.347       .  A
N129        C130   1.347       .  A
C130        C131   1.383       .  A
C130        H133   1.082       .  S
C131        C132   1.383       .  A
C132        H134   1.082       .  S
O135       Cu143   2.015       .  S
O135        C145   1.278       .  A
O136       Cu143   2.015       .  S
O136        C146   1.277       .  A
O137       Cu143   2.017       .  S
O137        C147   1.278       .  A
O138       Cu143   2.016       .  S
O138        C148   1.278       .  A
O139       Cu144   2.013       .  S
O139        C148   1.277       .  A
O140       Cu144   2.012       .  S
O140        C147   1.277       .  A
O141       Cu144   2.022       .  S
O141        C146   1.279       .  A
O142       Cu144   2.026       .  S
O142        C145   1.279       .  A
Cu143      Cu144   2.375       .  S
C145        C186   1.475       .  S
C146        C162   1.474       .  S
C148        C210   1.470       .  S
N149        N150   1.323       .  A
N149        C153   1.346       .  A
N149       Cu157   2.081       .  S
N150        C151   1.346       .  A
N150       Cu156   2.075       .  S
C151        C152   1.383       .  A
C151        H154   1.082       .  S
C152        C153   1.382       .  A
C152        C303   1.470       .  S
C153        H155   1.082       .  S
Cu156       N159   2.076       .  S
Cu157       N167   2.083       .  S
Cu158       N160   2.093       .  S
Cu158       N166   2.093       .  S
N159        N160   1.323       .  A
N159        C163   1.346       .  A
N160        C161   1.349       .  A
C161        C162   1.387       .  A
C161        H164   1.081       .  S
C162        C163   1.382       .  A
C163        H165   1.081       .  S
N166        N167   1.324       .  A
N166        C170   1.348       .  A
N167        C168   1.348       .  A
C168        C169   1.383       .  A
C168        H171   1.082       .  S
C169        C170   1.384       .  A
C170        H172   1.082       .  S
N173        N174   1.323       .  A
N173        C177   1.347       .  A
N173       Cu181   2.077       .  S
N174        C175   1.345       .  A
N174       Cu180   2.078       .  S
C175        C176   1.380       .  A
C175        H178   1.082       .  S
C176        C177   1.381       .  A
C177        H179   1.082       .  S
Cu180       N183   2.078       .  S
Cu181       N191   2.077       .  S
Cu182       N184   2.084       .  S
Cu182       N190   2.084       .  S
N183        N184   1.322       .  A
N183        C187   1.346       .  A
N184        C185   1.349       .  A
C185        C186   1.386       .  A
C185        H188   1.081       .  S
C186        C187   1.384       .  A
C187        H189   1.081       .  S
N190        N191   1.324       .  A
N190        C194   1.346       .  A
N191        C192   1.347       .  A
C192        C193   1.381       .  A
C192        H195   1.082       .  S
C193        C194   1.382       .  A
C193        C279   1.468       .  S
C194        H196   1.082       .  S
N197        N198   1.324       .  A
N197        C201   1.346       .  A
N197       Cu205   2.080       .  S
N198        C199   1.347       .  A
N198       Cu204   2.084       .  S
C199        C200   1.383       .  A
C199        H202   1.082       .  S
C200        C201   1.381       .  A
C200        C310   1.468       .  S
C201        H203   1.082       .  S
Cu204       N207   2.084       .  S
Cu205       N215   2.080       .  S
Cu206       N208   2.075       .  S
Cu206       N214   2.075       .  S
N207        N208   1.323       .  A
N207        C211   1.347       .  A
N208        C209   1.346       .  A
C209        C210   1.382       .  A
C209        H212   1.081       .  S
C210        C211   1.385       .  A
C211        H213   1.081       .  S
N214        N215   1.322       .  A
N214        C218   1.345       .  A
N215        C216   1.347       .  A
C216        C217   1.383       .  A
C216        H219   1.082       .  S
C217        C218   1.381       .  A
C218        H220   1.082       .  S
O221       Cu229   2.019       .  S
O221        C231   1.279       .  A
O222       Cu229   2.019   1_455  S
O222        C232   1.279       .  A
O223       Cu229   2.011   1_455  S
O223        C233   1.277       .  A
O224       Cu229   2.007       .  S
O224        C234   1.277       .  A
O225       Cu230   2.017       .  S
O225        C234   1.278       .  A
O226       Cu230   2.018   1_455  S
O226        C233   1.279       .  A
O227       Cu230   2.012   1_455  S
O227        C232   1.277       .  A
O228       Cu230   2.011       .  S
O228        C231   1.277       .  A
Cu229      Cu230   2.375       .  S
C231        C296   1.471       .  S
C232        C272   1.472       .  S
C233        C248   1.472       .  S
C234        C320   1.469       .  S
N235        N236   1.323       .  A
N235        C239   1.347       .  A
N235       Cu243   2.080       .  S
N236        C237   1.346       .  A
N236       Cu242   2.077       .  S
C237        C238   1.382       .  A
C237        H240   1.082       .  S
C238        C239   1.382       .  A
C238        C372   1.469   1_554  S
C239        H241   1.082       .  S
Cu242       N245   2.076       .  S
Cu243       N253   2.081       .  S
Cu244       N246   2.083       .  S
Cu244       N252   2.083       .  S
N245        N246   1.323       .  A
N245        C249   1.346       .  A
N246        C247   1.347       .  A
C247        C248   1.384       .  A
C247        H250   1.081       .  S
C248        C249   1.383       .  A
C249        H251   1.081       .  S
N252        N253   1.323       .  A
N252        C256   1.347       .  A
N253        C254   1.347       .  A
C254        C255   1.382       .  A
C254        H257   1.082       .  S
C255        C256   1.382       .  A
C256        H258   1.082       .  S
N259        N260   1.324       .  A
N259        C263   1.347       .  A
N259       Cu267   2.083       .  S
N260        C261   1.347       .  A
N260       Cu266   2.082       .  S
C261        C262   1.382       .  A
C261        H264   1.082   1_554  S
C262        C263   1.383       .  A
C262        C348   1.470   1_554  S
C263        H265   1.082       .  S
Cu266       N269   2.082       .  S
Cu267       N277   2.082       .  S
Cu268       N270   2.075       .  S
Cu268       N276   2.075       .  S
N269        N270   1.322       .  A
N269        C273   1.347       .  A
N270        C271   1.346       .  A
C271        C272   1.383       .  A
C271        H274   1.081       .  S
C272        C273   1.384       .  A
C273        H275   1.081       .  S
N276        N277   1.323       .  A
N276        C280   1.346       .  A
N277        C278   1.347       .  A
C278        C279   1.382       .  A
C278        H281   1.082       .  S
C279        C280   1.381       .  A
C280        H282   1.082       .  S
N283        N284   1.324       .  A
N283        C287   1.347       .  A
N283       Cu291   2.082       .  S
N284        C285   1.344       .  A
N284       Cu290   2.074       .  S
C285        C286   1.379       .  A
C285        H288   1.082   1_554  S
C286        C287   1.382       .  A
C286        C396   1.465   1_554  S
C287        H289   1.082       .  S
Cu290       N293   2.074       .  S
Cu291       N301   2.081       .  S
Cu292       N294   2.079       .  S
Cu292       N300   2.080       .  S
N293        N294   1.321       .  A
N293        C297   1.346       .  A
N294        C295   1.347       .  A
C295        C296   1.385       .  A
C295        H298   1.081       .  S
C296        C297   1.383       .  A
C297        H299   1.081       .  S
N300        N301   1.324       .  A
N300        C304   1.346       .  A
N301        C302   1.347       .  A
C302        C303   1.382       .  A
C302        H305   1.082       .  S
C303        C304   1.382       .  A
C304        H306   1.082       .  S
N307        N308   1.323       .  A
N307        C311   1.347       .  A
N307       Cu315   2.085       .  S
N308        C309   1.346       .  A
N308       Cu314   2.074       .  S
C309        C310   1.381       .  A
C309        H312   1.082       .  S
C310        C311   1.383       .  A
C311        H313   1.082       .  S
Cu314       N317   2.074       .  S
Cu315       N325   2.086       .  S
Cu316       N318   2.076       .  S
Cu316       N324   2.077       .  S
N317        N318   1.322       .  A
N317        C321   1.345       .  A
N318        C319   1.347       .  A
C319        C320   1.383       .  A
C319        H322   1.081       .  S
C320        C321   1.383       .  A
C321        H323   1.081       .  S
N324        N325   1.324       .  A
N324        C328   1.346       .  A
N325        C326   1.347       .  A
C326        C327   1.383       .  A
C326        H329   1.082       .  S
C327        C328   1.381       .  A
C327        C437   1.468   1_554  S
C328        H330   1.082   1_554  S
O331       Cu339   2.017   1_455  S
O331        C341   1.279       .  A
O332       Cu339   2.016       .  S
O332        C342   1.278       .  A
O333       Cu339   2.008       .  S
O333        C343   1.277       .  A
O334       Cu339   2.012   1_455  S
O334        C344   1.277       .  A
O335       Cu340   2.020   1_455  S
O335        C344   1.279       .  A
O336       Cu340   2.018       .  S
O336        C343   1.278       .  A
O337       Cu340   2.010       .  S
O337        C342   1.277       .  A
O338       Cu340   2.013   1_455  S
O338        C341   1.277       .  A
Cu339      Cu340   2.375       .  S
C341        C358   1.471       .  S
C342        C406   1.470       .  S
C343        C430   1.470       .  S
C344        C382   1.473       .  S
N345        N346   1.324       .  A
N345        C349   1.347       .  A
N345       Cu353   2.083       .  S
N346        C347   1.347       .  A
N346       Cu352   2.082       .  S
C347        C348   1.382       .  A
C347        H350   1.082   1_556  S
C348        C349   1.382       .  A
C349        H351   1.082       .  S
Cu352       N355   2.082       .  S
Cu353       N363   2.083       .  S
Cu354       N356   2.076       .  S
Cu354       N362   2.075       .  S
N355        N356   1.322       .  A
N355        C359   1.347       .  A
N356        C357   1.346       .  A
C357        C358   1.383       .  A
C357        H360   1.081       .  S
C358        C359   1.384       .  A
C359        H361   1.081       .  S
N362        N363   1.323       .  A
N362        C366   1.346       .  A
N363        C364   1.347       .  A
C364        C365   1.383       .  A
C364        H367   1.082       .  S
C365        C366   1.382       .  A
C366        H368   1.082       .  S
N369        N370   1.323       .  A
N369        C373   1.347       .  A
N369       Cu377   2.081       .  S
N370        C371   1.346       .  A
N370       Cu376   2.078       .  S
C371        C372   1.382   1_545  A
C371        H374   1.082       .  S
C372        C373   1.382   1_565  A
C373        H375   1.082   1_545  S
Cu376       N379   2.077       .  S
Cu377       N387   2.082       .  S
Cu378       N380   2.084       .  S
Cu378       N386   2.084       .  S
N379        N380   1.322       .  A
N379        C383   1.347       .  A
N380        C381   1.347       .  A
C381        C382   1.385       .  A
C381        H384   1.081       .  S
C382        C383   1.384       .  A
C383        H385   1.081       .  S
N386        N387   1.324       .  A
N386        C390   1.347       .  A
N387        C388   1.347       .  A
C388        C389   1.382       .  A
C388        H391   1.082       .  S
C389        C390   1.382       .  A
C390        H392   1.082       .  S
N393        N394   1.324       .  A
N393        C397   1.347   1_545  A
N393       Cu401   2.081       .  S
N394        C395   1.344       .  A
N394       Cu400   2.072       .  S
C395        C396   1.379   1_545  A
C395        H398   1.082   1_556  S
C396        C397   1.382       .  A
C397        H399   1.082       .  S
Cu400       N403   2.072       .  S
Cu401       N411   2.081       .  S
Cu402       N404   2.076       .  S
Cu402       N410   2.077       .  S
N403        N404   1.321       .  A
N403        C407   1.345       .  A
N404        C405   1.347       .  A
C405        C406   1.384       .  A
C405        H408   1.081       .  S
C406        C407   1.383       .  A
C407        H409   1.081       .  S
N410        N411   1.323       .  A
N410        C414   1.346       .  A
N411        C412   1.347       .  A
C412        C413   1.382       .  A
C412        H415   1.082       .  S
C413        C414   1.381       .  A
C414        H416   1.082       .  S
N417        N418   1.323       .  A
N417        C421   1.347       .  A
N417       Cu425   2.085       .  S
N418        C419   1.346       .  A
N418       Cu424   2.073       .  S
C419        C420   1.380       .  A
C419        H422   1.082       .  S
C420        C421   1.383       .  A
C421        H423   1.082       .  S
Cu424       N427   2.073       .  S
Cu425       N435   2.085       .  S
Cu426       N428   2.078       .  S
Cu426       N434   2.078       .  S
N427        N428   1.322       .  A
N427        C431   1.345       .  A
N428        C429   1.347       .  A
C429        C430   1.384       .  A
C429        H432   1.081       .  S
C430        C431   1.383       .  A
C431        H433   1.081       .  S
N434        N435   1.324       .  A
N434        C438   1.346       .  A
N435        C436   1.347       .  A
C436        C437   1.383       .  A
C436        H439   1.082       .  S
C437        C438   1.381       .  A
C438        H440   1.082   1_556  S
