geometry optimzed in LAMMPS
_audit_creation_date              2020-11-30 
_audit_creation_method            'lammps2cif' 
_symmetry_space_group_name_H-M    'P1' 
_symmetry_Int_Tables_number       1 
_symmetry_cell_setting            triclinic 
loop_ 
_symmetry_equiv_pos_as_xyz 
  x,y,z 
_cell_length_a                    31.71452848 
_cell_length_b                    29.320651926029623 
_cell_length_c                    37.39038531500399 
_cell_angle_alpha                 89.99841238010816 
_cell_angle_beta                  90.01077065280678 
_cell_angle_gamma                 89.99883802756297 
loop_ 
_atom_site_label 
_atom_site_type_symbol 
_atom_site_fract_x 
_atom_site_fract_y 
_atom_site_fract_z 
_atom_site_charge 
O1          O  0.74848520  0.31011485  0.16563701    -0.58000
C2          C  0.82648142  0.17653285  0.15454104     0.74700
O3          O  0.71619973  0.25059280  0.08212045    -0.59100
C4          C  0.71448724  0.28880311  0.17152563     0.74600
C5          C  0.82655434  0.32074321  0.09080866     0.77000
Cd6        Cd  0.77582427  0.24887373  0.12287142     1.37500
O7          O  0.79908901  0.19781466  0.17263852    -0.58000
O8          O  0.83658181  0.30174864  0.12000721    -0.56800
C9          C  0.71571827  0.20900831  0.07327578     0.77000
O10         O  0.79386316  0.30564362  0.07557275    -0.59100
O11         O  0.83139883  0.18953164  0.12249650    -0.57600
O12         O  0.71286877  0.24841596  0.15978918    -0.57600
O13         O  0.74741267  0.18568590  0.08268255    -0.56700
O14         O  0.20698459  0.29841601  0.17599869    -0.58000
C15         C  0.29327442  0.21077388  0.17137954     0.74700
O16         O  0.20888058  0.19884497  0.07449930    -0.59100
C17         C  0.18060902  0.32135302  0.15813929     0.74600
C18         C  0.28967880  0.29347880  0.07437484     0.77000
Cd19       Cd  0.23101630  0.25099976  0.12431355     1.37500
O20         O  0.29463606  0.25128633  0.15992129    -0.58000
O21         O  0.28630940  0.25086655  0.07867907    -0.56800
C22         C  0.18284426  0.17625808  0.09300842     0.77000
O23         O  0.26165878  0.31768291  0.08920542    -0.59100
O24         O  0.25961968  0.18909240  0.16526064    -0.57600
O25         O  0.17589518  0.31004207  0.12565274    -0.57600
O26         O  0.17710465  0.19003393  0.12472917    -0.56700
C27         C  0.10369269  0.41915821  0.17539982     0.86300
C28         C  0.13969195  0.45352615  0.17524829    -0.53900
C29         C  0.17662283  0.43797886  0.18927354     0.09300
C30         C  0.17238017  0.38965448  0.20589649     0.20200
C31         C  0.12128775  0.37632227  0.15769076    -0.54600
C32         C  0.15705337  0.36009126  0.17371606     0.09400
C33         C  0.09762950  0.40597037  0.21383925    -0.54100
C34         C  0.13350497  0.39294139  0.23171779     0.09900
H35         H  0.13748872  0.48530447  0.16033264     0.14500
H36         H  0.20182130  0.37739372  0.21873840     0.00200
H37         H  0.10711624  0.36058930  0.13429606     0.14800
H38         H  0.06656309  0.40944831  0.22517397     0.14600
C39         C  0.10810198  0.07504181  0.07728698     0.86300
C40         C  0.14457248  0.04148672  0.07561749    -0.53900
C41         C  0.18088732  0.05832867  0.06126306     0.09300
C42         C  0.17533809  0.10724981  0.04590238     0.20200
C43         C  0.12583625  0.11768102  0.09562317    -0.54600
C44         C  0.16063212  0.13551147  0.07887823     0.09400
C45         C  0.10069925  0.08946051  0.03922456    -0.54100
C46         C  0.13565694  0.10441655  0.02100855     0.09900
H47         H  0.14322675  0.00914165  0.08985688     0.14500
H48         H  0.20409770  0.12051417  0.03258347     0.00200
H49         H  0.11200786  0.13258431  0.11947397     0.14800
H50         H  0.06962512  0.08485022  0.02817447     0.14600
C51         C  0.90408088  0.07812889  0.17132799     0.86300
C52         C  0.86771261  0.04424935  0.17164938    -0.53900
C53         C  0.83104856  0.06025372  0.18591569     0.09300
C54         C  0.83566619  0.10871886  0.20199441     0.20200
C55         C  0.88641712  0.12105921  0.15330657    -0.54600
C56         C  0.85068969  0.13768996  0.16951447     0.09400
C57         C  0.91023665  0.09169948  0.20979770    -0.54100
C58         C  0.87458099  0.10575544  0.22759935     0.09900
H59         H  0.86955369  0.01218977  0.15708930     0.14500
H60         H  0.80638077  0.12128560  0.21489727     0.00200
H61         H  0.90040254  0.13643819  0.12970145     0.14800
H62         H  0.94112114  0.08736105  0.22130512     0.14600
C63         C  0.90473283  0.41838907  0.07529195     0.86300
C64         C  0.86852899  0.45262642  0.07599351    -0.53900
C65         C  0.83184445  0.43754239  0.06124316     0.09300
C66         C  0.83601208  0.38965371  0.04424906     0.20200
C67         C  0.88704517  0.37497645  0.09231464    -0.54600
C68         C  0.85101956  0.35943763  0.07606551     0.09400
C69         C  0.91072093  0.40629723  0.03652504    -0.54100
C70         C  0.87481996  0.39334471  0.01860818     0.09900
H71         H  0.87053498  0.48422554  0.09114602     0.14500
H72         H  0.80656150  0.37775862  0.03123078     0.00200
H73         H  0.90104979  0.35870694  0.11554753     0.14800
H74         H  0.94152861  0.41096314  0.02492455     0.14600
O75         O  0.96124085  0.47277287  0.07573565    -0.58000
C76         C  0.06995596  0.05246577  0.09329992     0.74700
O77         O  0.96208237  0.02510647  0.17338435    -0.59100
C78         C  0.94325474  0.43969652  0.09144135     0.74600
C79         C  0.06534060  0.44017642  0.15911986     0.77000
Cd80       Cd  0.00522013  0.99760557  0.12463366     1.37500
O81         O  0.05097933  0.02102517  0.07634481    -0.58000
O82         O  0.05632794  0.43437206  0.12650717    -0.56800
C83         C  0.94262350  0.05562172  0.15574344     0.77000
O84         O  0.04337472  0.46878557  0.17659631    -0.59100
O85         O  0.05664114  0.06151371  0.12440259    -0.57600
O86         O  0.95704202  0.42882752  0.12200757    -0.57600
O87         O  0.95485673  0.06259639  0.12398898    -0.56700
O88         O  0.79899402  0.20013980  0.32389833    -0.58000
C89         C  0.71704457  0.28822837  0.32330819     0.74700
O90         O  0.74919594  0.18903299  0.41607536    -0.59100
C91         C  0.82633127  0.17837608  0.34162540     0.74600
C92         C  0.82550588  0.32684427  0.40453258     0.77000
Cd93       Cd  0.77695118  0.25124112  0.37418887     1.37500
O94         O  0.71718773  0.24710514  0.33343903    -0.58000
O95         O  0.83473044  0.30877045  0.37476085    -0.56800
C96         C  0.71669650  0.21184884  0.42414362     0.77000
O97         O  0.79524930  0.30876346  0.42133767    -0.59100
O98         O  0.74836334  0.31204184  0.33276097    -0.57600
O99         O  0.83213421  0.19147862  0.37359001    -0.57600
O100        O  0.71639520  0.25290006  0.41387034    -0.56700
O101        O  0.20972844  0.19587085  0.42682858    -0.58000
C102        C  0.29144673  0.29136401  0.42615464     0.74700
O103        O  0.25956875  0.18758068  0.33897512    -0.59100
C104        C  0.17951087  0.17778167  0.40991097     0.74600
C105        C  0.18035495  0.32292053  0.34577656     0.77000
Cd106      Cd  0.22993920  0.25060683  0.37828588     1.37500
O107        O  0.29132470  0.24981640  0.41720480    -0.58000
O108        O  0.17212321  0.30743181  0.37666304    -0.56800
C109        C  0.28977161  0.21201168  0.32795618     0.77000
O110        O  0.20993267  0.30347337  0.32904369    -0.59100
O111        O  0.25877520  0.31392350  0.41813138    -0.57600
O112        O  0.17145082  0.19456035  0.37942797    -0.57600
O113        O  0.28804909  0.25382569  0.33590642    -0.56700
C114        C  0.10513487  0.42291268  0.32828669     0.86300
C115        C  0.09845627  0.40865208  0.29012992    -0.53900
C116        C  0.13378526  0.39395577  0.27226504     0.09300
C117        C  0.17287000  0.39073393  0.29777480     0.20200
C118        C  0.12214893  0.38010703  0.34673758    -0.54600
C119        C  0.15743171  0.36250054  0.33061955     0.09400
C120        C  0.14180363  0.45629016  0.32738580    -0.54100
C121        C  0.17820367  0.43946896  0.31328841     0.09900
H122        H  0.06748825  0.41317631  0.27884287     0.14500
H123        H  0.20188143  0.37745276  0.28486230     0.00200
H124        H  0.10789109  0.36535134  0.37046905     0.14800
H125        H  0.14037598  0.48864554  0.34159569     0.14600
C126        C  0.10200530  0.07892326  0.42473412     0.86300
C127        C  0.09621330  0.09067196  0.46351759    -0.54300
C128        C  0.13221948  0.10315140  0.48152225     0.09300
C129        C  0.17091503  0.10747443  0.45565355     0.20200
C130        C  0.11957061  0.12263047  0.40793886    -0.54600
C131        C  0.15556474  0.13829300  0.42425049     0.09400
C132        C  0.13816438  0.04479290  0.42367341    -0.54100
C133        C  0.17511444  0.05990268  0.43787866     0.09900
H134        H  0.06525834  0.08661322  0.47486966     0.14500
H135        H  0.20040989  0.11915133  0.46873807     0.00200
H136        H  0.10532102  0.13919993  0.38494827     0.14800
H137        H  0.13602005  0.01357385  0.40803398     0.14600
C138        C  0.90313635  0.07970910  0.32456646     0.86300
C139        C  0.90984554  0.09352834  0.28634024    -0.53900
C140        C  0.87433352  0.10695966  0.26817207     0.09300
C141        C  0.83501711  0.11018238  0.29359823     0.20200
C142        C  0.88540425  0.12242577  0.34260642    -0.54600
C143        C  0.84987640  0.13918081  0.32632964     0.09400
C144        C  0.86685528  0.04571572  0.32395522    -0.54100
C145        C  0.83018535  0.06164903  0.30968537     0.09900
H146        H  0.94096949  0.08957851  0.27520527     0.14500
H147        H  0.80588541  0.12284514  0.28049418     0.00200
H148        H  0.89929200  0.13769107  0.36630376     0.14800
H149        H  0.86877039  0.01364118  0.33850514     0.14600
C150        C  0.90313862  0.42536396  0.42129498     0.86300
C151        C  0.91003497  0.40948920  0.45903034    -0.53900
C152        C  0.87439358  0.39616784  0.47703869     0.09300
C153        C  0.83483096  0.39522025  0.45204365     0.20200
C154        C  0.88415910  0.38387043  0.40222162    -0.54600
C155        C  0.84867187  0.36708328  0.41864462     0.09400
C156        C  0.86769875  0.46024754  0.42335387    -0.54100
C157        C  0.83087564  0.44452441  0.43746247     0.09900
H158        H  0.94137910  0.41198438  0.47014141     0.14500
H159        H  0.80566681  0.38272601  0.46516565     0.00200
H160        H  0.89768143  0.36893754  0.37825242     0.14800
H161        H  0.87018102  0.49291062  0.40968313     0.14600
O162        O  0.95799544  0.02334514  0.32477891    -0.58000
C163        C  0.06715121  0.44597321  0.34383051     0.74700
O164        O  0.04471801  0.02501011  0.42450816    -0.59100
C165        C  0.94131798  0.05732855  0.34037963     0.74600
C166        C  0.94162938  0.44767304  0.40599289     0.77000
Cd167      Cd  0.00488517  0.50344512  0.37454786     1.37500
O168        O  0.04690842  0.47536542  0.32563945    -0.58000
O169        O  0.95746590  0.43633019  0.37628092    -0.56800
C170        C  0.06353529  0.05740718  0.40849329     0.77000
O171        O  0.95813685  0.48143837  0.42202501    -0.59100
O172        O  0.05629624  0.44061364  0.37609706    -0.57600
O173        O  0.95638728  0.06860589  0.37039637    -0.57600
O174        O  0.05119441  0.06687226  0.37720983    -0.56700
O175        O  0.29683843  0.05321870  0.17541493    -0.58000
C176        C  0.21553920  0.45871971  0.17443603     0.74700
O177        O  0.25119827  0.06172976  0.08642153    -0.59100
C178        C  0.32834144  0.07009427  0.15944811     0.74600
C179        C  0.32642501  0.42845241  0.09288489     0.77000
Cd180      Cd  0.27689289  0.49971420  0.12611635     1.37500
O181        O  0.21614799  0.50048858  0.16624728    -0.58000
O182        O  0.33398951  0.44282211  0.12425575    -0.56800
C183        C  0.22010921  0.03818137  0.07598524     0.77000
O184        O  0.29720018  0.44843713  0.07604946    -0.59100
O185        O  0.24700118  0.43553090  0.16439674    -0.57600
O186        O  0.33801134  0.05188664  0.12981073    -0.57600
O187        O  0.22075006  0.99648648  0.08435810    -0.56700
O188        O  0.70795910  0.44901908  0.17074151    -0.58000
C189        C  0.79171340  0.03931203  0.17217429     0.74700
O190        O  0.76036735  0.43607409  0.08326051    -0.59100
C191        C  0.67986578  0.42783506  0.15344165     0.74600
C192        C  0.68037810  0.07160507  0.09117163     0.77000
Cd193      Cd  0.72967493  0.50013644  0.12056858     1.37500
O194        O  0.79155401  0.99787490  0.16304498    -0.58000
O195        O  0.67208634  0.05545746  0.12182669    -0.56800
C196        C  0.79241732  0.45895585  0.07416078     0.77000
O197        O  0.71049158  0.05280169  0.07459536    -0.59100
O198        O  0.75928533  0.06213612  0.16389422    -0.57600
O199        O  0.67314758  0.44155050  0.12176525    -0.57600
O200        O  0.79160134  0.50093852  0.08166203    -0.56700
C201        C  0.60366919  0.17106774  0.07434082     0.86300
C202        C  0.59666024  0.15693978  0.03617500    -0.53900
C203        C  0.63196486  0.14244534  0.01810464     0.09300
C204        C  0.67142183  0.13967912  0.04328970     0.20200
C205        C  0.62144502  0.12831471  0.09255827    -0.54600
C206        C  0.65678397  0.11110545  0.07618338     0.09400
C207        C  0.64001291  0.20486148  0.07313520    -0.54100
C208        C  0.67648316  0.18849197  0.05884059     0.09900
H209        H  0.56565876  0.16162298  0.02499196     0.14500
H210        H  0.70040641  0.12680896  0.03009087     0.00200
H211        H  0.60765314  0.11334576  0.11639961     0.14800
H212        H  0.63841166  0.23711961  0.08747734     0.14600
C213        C  0.40197817  0.32890081  0.07546930     0.86300
C214        C  0.40973856  0.34349926  0.03747271    -0.53900
C215        C  0.37486297  0.35831197  0.01905791     0.09300
C216        C  0.33513213  0.36170699  0.04402615     0.20200
C217        C  0.38467006  0.37157666  0.09387745    -0.54600
C218        C  0.34984260  0.38949421  0.07732857     0.09400
C219        C  0.36510292  0.29570678  0.07368927    -0.54100
C220        C  0.32902922  0.31291002  0.05928847     0.09900
H221        H  0.44085966  0.33870884  0.02651798     0.14500
H222        H  0.30651472  0.37529334  0.03067479     0.00200
H223        H  0.39824475  0.38586626  0.11807445     0.14800
H224        H  0.36586928  0.26342742  0.08804368     0.14600
C225        C  0.40502373  0.16974513  0.17338429     0.86300
C226        C  0.41021224  0.15963680  0.21252268    -0.53900
C227        C  0.37416789  0.14701381  0.23037119     0.09300
C228        C  0.33580326  0.14190113  0.20421049     0.20200
C229        C  0.38804061  0.12534920  0.15743051    -0.54600
C230        C  0.35183229  0.11006062  0.17360699     0.09400
C231        C  0.36889590  0.20353792  0.17111773    -0.54100
C232        C  0.33195698  0.18908865  0.18558289     0.09900
H233        H  0.44096277  0.16460570  0.22419202     0.14500
H234        H  0.30610273  0.13051576  0.21710685     0.00200
H235        H  0.40278445  0.10813507  0.13496757     0.14800
H236        H  0.37139026  0.23452240  0.15521964     0.14600
C237        C  0.60273534  0.32978407  0.17218885     0.86300
C238        C  0.59734215  0.34405330  0.21059658    -0.53900
C239        C  0.63357658  0.35768114  0.22781719     0.09300
C240        C  0.67208974  0.35972807  0.20153194     0.20200
C241        C  0.62053091  0.37204103  0.15347558    -0.54600
C242        C  0.65661279  0.38856467  0.16895997     0.09400
C243        C  0.63853129  0.29525213  0.17245627    -0.54100
C244        C  0.67576866  0.31079233  0.18586790     0.09900
H245        H  0.56671773  0.33987781  0.22265111     0.14500
H246        H  0.70177738  0.37213869  0.21386101     0.00200
H247        H  0.60609672  0.38733115  0.13002075     0.14800
H248        H  0.63574934  0.26289202  0.15840424     0.14600
O249        O  0.54777823  0.22661938  0.07440332    -0.58000
C250        C  0.43949810  0.30560720  0.09172710     0.74700
O251        O  0.46355999  0.22165801  0.17415841    -0.59100
C252        C  0.56569854  0.19376619  0.09049912     0.74600
C253        C  0.56416352  0.30770522  0.15659937     0.77000
Cd254      Cd  0.50307635  0.24970899  0.12374384     1.37500
O255        O  0.45728458  0.27293567  0.07535773    -0.58000
O256        O  0.55243082  0.31488959  0.12476284    -0.56800
C257        C  0.44334351  0.19120620  0.15711254     0.77000
O258        O  0.54478175  0.27679215  0.17381137    -0.59100
O259        O  0.45319116  0.31502879  0.12262060    -0.57600
O260        O  0.55213363  0.18398573  0.12134400    -0.57600
O261        O  0.45335889  0.18492489  0.12476009    -0.56700
O262        O  0.29757269  0.44856890  0.42516781    -0.58000
C263        C  0.21398867  0.03990632  0.42242519     0.74700
O264        O  0.29690127  0.05564661  0.32560204    -0.59100
C265        C  0.32797578  0.43014599  0.40874422     0.74600
C266        C  0.21757069  0.46012942  0.32716103     0.77000
Cd267      Cd  0.27773267  0.50168362  0.37561554     1.37500
O268        O  0.21482292  0.99842146  0.41347653    -0.58000
O269        O  0.21835764  0.50203720  0.33484355    -0.56800
C270        C  0.32643120  0.07463545  0.34281629     0.77000
O271        O  0.24904573  0.43693526  0.33722187    -0.59100
O272        O  0.24527708  0.06357521  0.41274035    -0.57600
O273        O  0.33662585  0.44648080  0.37819798    -0.57600
O274        O  0.33447388  0.05783889  0.37331643    -0.56700
O275        O  0.71293718  0.44667607  0.32379314    -0.58000
C276        C  0.79090198  0.04079839  0.32390390     0.74700
O277        O  0.71026525  0.05480950  0.42243321    -0.59100
C278        C  0.68600218  0.42472314  0.34181772     0.74600
C279        C  0.79191623  0.46562540  0.42316138     0.77000
Cd280      Cd  0.73126744  0.50097750  0.37315355     1.37500
O281        O  0.75763996  0.06318323  0.33040022    -0.58000
O282        O  0.75758410  0.44413866  0.41928453    -0.56800
C283        C  0.68020102  0.07412252  0.40622570     0.77000
O284        O  0.79366310  0.50479353  0.40917957    -0.59100
O285        O  0.79146754  0.00016658  0.33510643    -0.57600
O286        O  0.67963153  0.43856903  0.37346694    -0.57600
O287        O  0.67129358  0.05842737  0.37553035    -0.56700
C288        C  0.40410769  0.33051419  0.42461633     0.86300
C289        C  0.36746496  0.29693006  0.42441147    -0.53900
C290        C  0.33101203  0.31276491  0.43913373     0.09300
C291        C  0.33605498  0.36096841  0.45578019     0.20200
C292        C  0.38691810  0.37397459  0.40729359    -0.54600
C293        C  0.35137701  0.39061510  0.42363067     0.09400
C294        C  0.41059190  0.34299431  0.46317684    -0.54100
C295        C  0.37517977  0.35697239  0.48123999     0.09900
H296        H  0.36909594  0.26508181  0.40954378     0.14500
H297        H  0.30691727  0.37359189  0.46888578     0.00200
H298        H  0.40106519  0.38968036  0.38389232     0.14800
H299        H  0.44144744  0.33794872  0.47451864     0.14600
C300        C  0.40214430  0.17573927  0.32735877     0.86300
C301        C  0.36547050  0.20921047  0.32693612    -0.53900
C302        C  0.32900233  0.19268915  0.31268190     0.09300
C303        C  0.33433894  0.14436188  0.29631016     0.20200
C304        C  0.38483983  0.13234889  0.34514000    -0.54600
C305        C  0.34951895  0.11507687  0.32865831     0.09400
C306        C  0.40877083  0.16248841  0.28902833    -0.54100
C307        C  0.37350868  0.14819667  0.27091880     0.09900
H308        H  0.36685559  0.24108435  0.34179574     0.14500
H309        H  0.30535386  0.13158370  0.28304211     0.00200
H310        H  0.39901545  0.11691826  0.36864040     0.14800
H311        H  0.43982596  0.16715778  0.27787255     0.14600
C312        C  0.60697820  0.32838493  0.32453319     0.86300
C313        C  0.64167038  0.29267713  0.32107728    -0.53900
C314        C  0.67864580  0.30826286  0.30704764     0.09300
C315        C  0.67500499  0.35787967  0.29290558     0.20200
C316        C  0.62731408  0.36876811  0.34380879    -0.54600
C317        C  0.66250800  0.38532735  0.32701169     0.09400
C318        C  0.59932990  0.34553097  0.28714770    -0.54100
C319        C  0.63479561  0.35808895  0.26844891     0.09900
H320        H  0.63918102  0.26005886  0.33480355     0.14500
H321        H  0.70402703  0.37014759  0.27939789     0.00200
H322        H  0.61469716  0.38336255  0.36826257     0.14800
H323        H  0.56765252  0.34432420  0.27672273     0.14600
C324        C  0.60451909  0.17373197  0.42372936     0.86300
C325        C  0.64092772  0.20749525  0.42468340    -0.53900
C326        C  0.67755723  0.19112912  0.43870974     0.09300
C327        C  0.67251234  0.14237527  0.45438178     0.20200
C328        C  0.62194728  0.13106689  0.40542216    -0.54600
C329        C  0.65731062  0.11374838  0.42157934     0.09400
C330        C  0.59776476  0.15949045  0.46185056    -0.54100
C331        C  0.63327995  0.14558622  0.47983175     0.09900
H332        H  0.63913708  0.23977323  0.41039742     0.14500
H333        H  0.70156547  0.12936178  0.46740188     0.00200
H334        H  0.60783389  0.11613402  0.38169234     0.14800
H335        H  0.56666984  0.16341311  0.47302723     0.14600
O336        O  0.45789320  0.23158868  0.32681754    -0.58000
C337        C  0.56853337  0.30728382  0.34123495     0.74700
O338        O  0.45846405  0.27361790  0.42349083    -0.59100
C339        C  0.44063413  0.19827426  0.34292133     0.74600
C340        C  0.56652528  0.19646559  0.40785514     0.77000
Cd341      Cd  0.50480141  0.25322124  0.37503876     1.37500
O342        O  0.54750544  0.27722818  0.32446121    -0.58000
O343        O  0.55291545  0.18699556  0.37693245    -0.56800
C344        C  0.44250194  0.30853944  0.40870802     0.77000
O345        O  0.54873689  0.22915601  0.42427544    -0.59100
O346        O  0.55752194  0.31553473  0.37311858    -0.57600
O347        O  0.45594619  0.18722175  0.37290297    -0.57600
O348        O  0.45890430  0.32155483  0.37961800    -0.56700
O349        O  0.74983598  0.31295372  0.66533580    -0.58000
C350        C  0.82556185  0.17686742  0.65579103     0.74700
O351        O  0.71509665  0.25156198  0.58620267    -0.59100
C352        C  0.71827813  0.28927363  0.67450765     0.74600
C353        C  0.82578334  0.32583285  0.59066954     0.77000
Cd354      Cd  0.77746954  0.25136318  0.62369220     1.37500
O355        O  0.79636750  0.19670673  0.67274530    -0.58000
O356        O  0.83679363  0.30694488  0.61972471    -0.56800
C357        C  0.71583847  0.21030923  0.57648372     0.77000
O358        O  0.79346628  0.30930446  0.57569826    -0.59100
O359        O  0.83419625  0.19307663  0.62518531    -0.57600
O360        O  0.71869365  0.24800069  0.66493685    -0.57600
O361        O  0.74940602  0.18861406  0.58314315    -0.56700
O362        O  0.21212751  0.30543887  0.67155144    -0.58000
C363        C  0.29013113  0.20801198  0.67157895     0.74700
O364        O  0.20799852  0.19658473  0.57464435    -0.59100
C365        C  0.18022292  0.32194366  0.65596756     0.74600
C366        C  0.29141863  0.29024795  0.57557944     0.77000
Cd367      Cd  0.23002074  0.24981796  0.62354539     1.37500
O368        O  0.29024103  0.24973586  0.66324362    -0.58000
O369        O  0.29034220  0.24833548  0.58332713    -0.56800
C370        C  0.17936953  0.17713821  0.59267042     0.77000
O371        O  0.25963150  0.31351652  0.58482924    -0.59100
O372        O  0.25764313  0.18562136  0.66283527    -0.57600
O373        O  0.17021786  0.30384843  0.62636854    -0.57600
O374        O  0.17275743  0.19289799  0.62370658    -0.56700
C375        C  0.10331063  0.42053028  0.67232072     0.86300
C376        C  0.13959609  0.45457251  0.67194671    -0.53900
C377        C  0.17633166  0.43900828  0.68625552     0.09300
C378        C  0.17198829  0.39089254  0.70290453     0.20200
C379        C  0.12071275  0.37740389  0.65470657    -0.54600
C380        C  0.15659166  0.36118683  0.67081729     0.09400
C381        C  0.09733244  0.40742296  0.71078481    -0.54100
C382        C  0.13325236  0.39451868  0.72867887     0.09900
H383        H  0.13759291  0.48636295  0.65702120     0.14500
H384        H  0.20138763  0.37863561  0.71581683     0.00200
H385        H  0.10643737  0.36158835  0.63140138     0.14800
H386        H  0.06619762  0.41054366  0.72203496     0.14600
C387        C  0.10286573  0.07691063  0.57898831     0.86300
C388        C  0.13941585  0.04346003  0.58040281    -0.53900
C389        C  0.17605856  0.05873734  0.56580733     0.09300
C390        C  0.17141399  0.10624562  0.54782603     0.20200
C391        C  0.11987452  0.12113445  0.59551429    -0.54600
C392        C  0.15572232  0.13712030  0.57898572     0.09400
C393        C  0.09713521  0.08792600  0.54006171    -0.54100
C394        C  0.13266831  0.10165319  0.52208150     0.09900
H395        H  0.13756189  0.01220297  0.59599310     0.14500
H396        H  0.20079729  0.11819350  0.53472027     0.00200
H397        H  0.10540130  0.13782513  0.61834181     0.14800
H398        H  0.06644222  0.08252313  0.52856998     0.14600
C399        C  0.90077702  0.07621275  0.67170117     0.86300
C400        C  0.86440476  0.04248382  0.67129766    -0.53900
C401        C  0.82760700  0.05820373  0.68540392     0.09300
C402        C  0.83226681  0.10644927  0.70231983     0.20200
C403        C  0.88369808  0.11965895  0.65427934    -0.54600
C404        C  0.84799728  0.13635078  0.67034981     0.09400
C405        C  0.90676969  0.08890457  0.71031680    -0.54100
C406        C  0.87115576  0.10252463  0.72822546     0.09900
H407        H  0.86647960  0.01063294  0.65646995     0.14500
H408        H  0.80294191  0.11889372  0.71524039     0.00200
H409        H  0.89830723  0.13551700  0.63114538     0.14800
H410        H  0.93777251  0.08535601  0.72168432     0.14600
C411        C  0.90284333  0.42477236  0.57351670     0.86300
C412        C  0.86691085  0.45919337  0.57190443    -0.53900
C413        C  0.83036100  0.44299220  0.55758065     0.09300
C414        C  0.83494826  0.39396939  0.54253802     0.20200
C415        C  0.88452671  0.38252798  0.59196684    -0.54600
C416        C  0.84913093  0.36555403  0.57566849     0.09400
C417        C  0.90990066  0.41007176  0.53550562    -0.54100
C418        C  0.87443925  0.39611038  0.51746286     0.09900
H419        H  0.86864099  0.49147046  0.58621490     0.14500
H420        H  0.80590847  0.38128094  0.52932438     0.00200
H421        H  0.89818489  0.36756029  0.61587140     0.14800
H422        H  0.94101803  0.41418643  0.52426214     0.14600
O423        O  0.96033624  0.47822908  0.57358721    -0.58000
C424        C  0.06420144  0.05453979  0.59423020     0.74700
O425        O  0.96416153  0.03053748  0.67445918    -0.59100
C426        C  0.94107127  0.44639115  0.58984875     0.74600
C427        C  0.06486048  0.44260459  0.65680060     0.77000
Cd428      Cd  0.00132290  0.99631899  0.62437671     1.37500
O429        O  0.04740546  0.02142296  0.57764093    -0.58000
O430        O  0.04999059  0.43161379  0.62663307    -0.56800
C431        C  0.93906622  0.05425294  0.65549722     0.77000
O432        O  0.04801210  0.47631100  0.67266641    -0.59100
O433        O  0.04881510  0.06457689  0.62441086    -0.57600
O434        O  0.95380206  0.43631882  0.62092196    -0.57600
O435        O  0.94461188  0.05332664  0.62202025    -0.56700
O436        O  0.80206016  0.20245670  0.82285926    -0.58000
C437        C  0.71838624  0.29049264  0.82485725     0.74700
O438        O  0.74684986  0.18629889  0.91421192    -0.59100
C439        C  0.82605613  0.17755846  0.84157030     0.74600
C440        C  0.82557808  0.32309910  0.90645076     0.77000
Cd441      Cd  0.77654759  0.24959548  0.87430325     1.37500
O442        O  0.72032005  0.24800496  0.83027875    -0.58000
O443        O  0.83627016  0.30387363  0.87750172    -0.56800
C444        C  0.71362770  0.20845159  0.92123549     0.77000
O445        O  0.79383386  0.30644287  0.92216574    -0.59100
O446        O  0.74820942  0.31424412  0.83735033    -0.57600
O447        O  0.82881925  0.18756232  0.87449000    -0.57600
O448        O  0.71300443  0.24934902  0.91067327    -0.56700
O449        O  0.21074820  0.19787708  0.92453983    -0.58000
C450        C  0.29328775  0.29214901  0.92214585     0.74700
O451        O  0.26168183  0.18521180  0.83902446    -0.59100
C452        C  0.18213242  0.17750131  0.90719458     0.74600
C453        C  0.17938097  0.31959854  0.84120988     0.77000
Cd454      Cd  0.23143800  0.25019153  0.87469456     1.37500
O455        O  0.29286715  0.25037824  0.91395671    -0.58000
O456        O  0.17001808  0.30226419  0.87125814    -0.56800
C457        C  0.28944620  0.20983610  0.82435812     0.77000
O458        O  0.21145005  0.30332988  0.82576147    -0.59100
O459        O  0.26123983  0.31494882  0.91283097    -0.57600
O460        O  0.17509118  0.19204404  0.87583369    -0.57600
O461        O  0.28597561  0.25234054  0.82882558    -0.56700
C462        C  0.10446304  0.42027681  0.82640008     0.86300
C463        C  0.09868251  0.41079856  0.78715663    -0.53900
C464        C  0.13368928  0.39556243  0.76919131     0.09300
C465        C  0.17215090  0.38903545  0.79494599     0.20200
C466        C  0.11975740  0.37502355  0.84211343    -0.54600
C467        C  0.15546790  0.35843171  0.82596601     0.09400
C468        C  0.14211615  0.45224161  0.82841393    -0.54100
C469        C  0.17810571  0.43611738  0.81315035     0.09900
H470        H  0.06854120  0.41810455  0.77536160     0.14500
H471        H  0.20121973  0.37619364  0.78184974     0.00200
H472        H  0.10496239  0.35886045  0.86503521     0.14800
H473        H  0.14127899  0.48349374  0.84405805     0.14600
C474        C  0.10476299  0.07927636  0.92444762     0.86300
C475        C  0.09856913  0.09366676  0.96273620    -0.54300
C476        C  0.13456114  0.10670391  0.98053714     0.09300
C477        C  0.17341766  0.10929758  0.95486389     0.20200
C478        C  0.12284128  0.12164589  0.90609170    -0.54600
C479        C  0.15856798  0.13819877  0.92220184     0.09400
C480        C  0.14076367  0.04482758  0.92513829    -0.54100
C481        C  0.17756291  0.06059888  0.93922805     0.09900
H482        H  0.06758269  0.09024699  0.97425759     0.14500
H483        H  0.20279004  0.12174182  0.96770467     0.00200
H484        H  0.10888496  0.13697130  0.88244821     0.14800
H485        H  0.13876729  0.01276044  0.91057228     0.14600
C486        C  0.90118967  0.07737279  0.82579938     0.86300
C487        C  0.90712792  0.08885176  0.78689723    -0.53900
C488        C  0.87156462  0.10301204  0.76888728     0.09300
C489        C  0.83302673  0.10809747  0.79474081     0.20200
C490        C  0.88459203  0.12132437  0.84269208    -0.54600
C491        C  0.84911130  0.13808047  0.82642366     0.09400
C492        C  0.86432532  0.04426681  0.82671573    -0.54100
C493        C  0.82792556  0.06024428  0.81196692     0.09900
H494        H  0.93773876  0.08279383  0.77539997     0.14500
H495        H  0.80377725  0.12080250  0.78183779     0.00200
H496        H  0.89905578  0.13731644  0.86584549     0.14800
H497        H  0.86576868  0.01274451  0.84203328     0.14600
C498        C  0.90205880  0.42278255  0.92178338     0.86300
C499        C  0.90930001  0.40846163  0.95987087    -0.53900
C500        C  0.87401292  0.39463291  0.97816666     0.09300
C501        C  0.83431449  0.39234538  0.95330238     0.20200
C502        C  0.88370888  0.38035071  0.90367789    -0.54600
C503        C  0.84852820  0.36346420  0.92044759     0.09400
C504        C  0.86613830  0.45710446  0.92323002    -0.54100
C505        C  0.82966355  0.44123778  0.93784437     0.09900
H506        H  0.94054964  0.41213612  0.97083091     0.14500
H507        H  0.80534146  0.37980632  0.96670696     0.00200
H508        H  0.89729359  0.36504834  0.87987720     0.14800
H509        H  0.86794219  0.48930117  0.90881938     0.14600
O510        O  0.95783512  0.02265390  0.82634673    -0.58000
C511        C  0.06662915  0.44248116  0.84328909     0.74700
O512        O  0.04837673  0.02440663  0.92480767    -0.59100
C513        C  0.93959395  0.05557701  0.84207372     0.74600
C514        C  0.94025108  0.44482254  0.90572558     0.77000
Cd515      Cd  0.00360220  0.50027295  0.87353108     1.37500
O516        O  0.03811380  0.46119439  0.82443169    -0.58000
O517        O  0.95454703  0.43424275  0.87530616    -0.56800
C518        C  0.06621062  0.05728447  0.90867780     0.77000
O519        O  0.95807468  0.47764708  0.92181075    -0.59100
O520        O  0.06420001  0.44801119  0.87675357    -0.57600
O521        O  0.95353141  0.06653926  0.87258648    -0.57600
O522        O  0.05203063  0.06763147  0.87811079    -0.56700
O523        O  0.29686605  0.05042910  0.67603992    -0.58000
C524        C  0.21557394  0.46003398  0.67260619     0.74700
O525        O  0.24673926  0.06083532  0.58997878    -0.59100
C526        C  0.32732010  0.06771401  0.65889619     0.74600
C527        C  0.32793320  0.42752343  0.59472065     0.77000
Cd528      Cd  0.27797812  0.49987551  0.62565315     1.37500
O529        O  0.21571261  0.50142278  0.66323275    -0.58000
O530        O  0.33234030  0.43982471  0.62701847    -0.56800
C531        C  0.21512529  0.03780364  0.58004237     0.77000
O532        O  0.30209693  0.45017612  0.57607639    -0.59100
O533        O  0.24813678  0.43717861  0.66484320    -0.57600
O534        O  0.33567783  0.04992867  0.62886488    -0.57600
O535        O  0.21559895  0.99594344  0.58799758    -0.56700
O536        O  0.71196296  0.44687529  0.67333283    -0.58000
C537        C  0.78865669  0.03703556  0.67082114     0.74700
O538        O  0.76099801  0.43834894  0.58336900    -0.59100
C539        C  0.68348858  0.42599278  0.65621207     0.74600
C540        C  0.67868593  0.06876624  0.58999909     0.77000
Cd541      Cd  0.73139866  0.50007157  0.62311981     1.37500
O542        O  0.78899270  0.99566015  0.66136040    -0.58000
O543        O  0.66643854  0.04688098  0.61730331    -0.56800
C544        C  0.79126082  0.46275239  0.57251296     0.77000
O545        O  0.71241446  0.05510309  0.57558748    -0.59100
O546        O  0.75629539  0.05962687  0.66204598    -0.57600
O547        O  0.67612672  0.44042278  0.62487145    -0.57600
O548        O  0.78963558  0.50458094  0.58048845    -0.56700
C549        C  0.60337517  0.16963567  0.57752422     0.86300
C550        C  0.59753001  0.15944669  0.53840622    -0.53900
C551        C  0.63314184  0.14592081  0.52032584     0.09300
C552        C  0.67177622  0.14076145  0.54598973     0.20200
C553        C  0.62001574  0.12508748  0.59339775    -0.54600
C554        C  0.65574767  0.10934299  0.57676670     0.09400
C555        C  0.63999403  0.20295953  0.57933867    -0.54100
C556        C  0.67646265  0.18805567  0.56420832     0.09900
H557        H  0.56684679  0.16513031  0.52690918     0.14500
H558        H  0.70112980  0.12883206  0.53283768     0.00200
H559        H  0.60535199  0.10799780  0.61596571     0.14800
H560        H  0.63813805  0.23416432  0.59501575     0.14600
C561        C  0.40400386  0.32845432  0.57801366     0.86300
C562        C  0.41084357  0.34282271  0.53978724    -0.53900
C563        C  0.37534606  0.35687807  0.52175534     0.09300
C564        C  0.33619160  0.35979079  0.54703312     0.20200
C565        C  0.38636732  0.37096005  0.59634636    -0.54600
C566        C  0.35114532  0.38811917  0.57993132     0.09400
C567        C  0.36752935  0.29460623  0.57688579    -0.54100
C568        C  0.33110745  0.31106191  0.56245243     0.09900
H569        H  0.44189815  0.33889912  0.52856651     0.14500
H570        H  0.30714979  0.37286807  0.53403541     0.00200
H571        H  0.40024981  0.38599594  0.62013922     0.14800
H572        H  0.36904578  0.26222206  0.59100226     0.14600
C573        C  0.40283057  0.16870241  0.67164497     0.86300
C574        C  0.40838019  0.15862067  0.71077885    -0.53900
C575        C  0.37286456  0.14474983  0.72868426     0.09300
C576        C  0.33438458  0.13925337  0.70290941     0.20200
C577        C  0.38650445  0.12389406  0.65572710    -0.54600
C578        C  0.35068643  0.10794131  0.67226276     0.09400
C579        C  0.36595674  0.20164585  0.66957124    -0.54100
C580        C  0.32946879  0.18638181  0.68448902     0.09900
H581        H  0.43886757  0.16455998  0.72245275     0.14500
H582        H  0.30500782  0.12717765  0.71595160     0.00200
H583        H  0.40131919  0.10688931  0.63319688     0.14800
H584        H  0.36765048  0.23277758  0.65382143     0.14600
C585        C  0.60646774  0.32721726  0.67392370     0.86300
C586        C  0.59967064  0.34234259  0.71189345    -0.53900
C587        C  0.63522333  0.35619666  0.72984186     0.09300
C588        C  0.67461753  0.35830291  0.70461918     0.20200
C589        C  0.62475118  0.36931349  0.65521790    -0.54600
C590        C  0.66020385  0.38646900  0.67143368     0.09400
C591        C  0.64250409  0.29293963  0.67555785    -0.54100
C592        C  0.67923523  0.30929423  0.68955046     0.09900
H593        H  0.56855002  0.33901528  0.72310124     0.14500
H594        H  0.70373075  0.37109556  0.71767441     0.00200
H595        H  0.61098156  0.38414281  0.63130979     0.14800
H596        H  0.64061504  0.26055071  0.66145537     0.14600
O597        O  0.54654636  0.22337619  0.57713354    -0.58000
C598        C  0.44218694  0.30608900  0.59400136     0.74700
O599        O  0.46154564  0.22048984  0.67411544    -0.59100
C600        C  0.56520326  0.19143355  0.59373249     0.74600
C601        C  0.56796261  0.30498716  0.65805450     0.77000
Cd602      Cd  0.50422109  0.24884792  0.62597996     1.37500
O603        O  0.46163156  0.27527009  0.57677442    -0.58000
O604        O  0.55641570  0.31194344  0.62613320    -0.56800
C605        C  0.44134986  0.19092839  0.65606115     0.77000
O606        O  0.54756471  0.27510469  0.67559316    -0.59100
O607        O  0.45430250  0.31379755  0.62568690    -0.57600
O608        O  0.55287066  0.18280022  0.62519446    -0.57600
O609        O  0.45247527  0.18528587  0.62388945    -0.56700
O610        O  0.29955408  0.44925331  0.92298891    -0.58000
C611        C  0.21647054  0.04020035  0.92446341     0.74700
O612        O  0.29868421  0.05144250  0.82446608    -0.59100
C613        C  0.32850927  0.42972764  0.90550121     0.74600
C614        C  0.21790100  0.45698743  0.82562465     0.77000
Cd615      Cd  0.27697164  0.50014060  0.87366667     1.37500
O616        O  0.21793015  0.99808622  0.91733518    -0.58000
O617        O  0.21960105  0.49953467  0.83080802    -0.56800
C618        C  0.32482098  0.07438193  0.84260576     0.77000
O619        O  0.24844589  0.43376127  0.83756794    -0.59100
O620        O  0.24675289  0.06413464  0.91303178    -0.57600
O621        O  0.33510759  0.44430853  0.87407550    -0.57600
O622        O  0.32986622  0.06216981  0.87482763    -0.56700
O623        O  0.71325359  0.44647991  0.82496856    -0.58000
C624        C  0.78856007  0.03932407  0.82533131     0.74700
O625        O  0.70839894  0.05137551  0.92259249    -0.59100
C626        C  0.68303594  0.42857171  0.84200420     0.74600
C627        C  0.79065429  0.46212308  0.92350213     0.77000
Cd628      Cd  0.73264155  0.50192032  0.87265486     1.37500
O629        O  0.75732598  0.06257869  0.83581079    -0.58000
O630        O  0.75928210  0.43887928  0.91331987    -0.56800
C631        C  0.67908651  0.07022305  0.90509302     0.77000
O632        O  0.79035982  0.50387564  0.91513391    -0.59100
O633        O  0.78776513  0.99723854  0.83257603    -0.57600
O634        O  0.67446807  0.44599251  0.87215751    -0.57600
O635        O  0.67158223  0.05420142  0.87426398    -0.56700
C636        C  0.40561067  0.33148451  0.92200009     0.86300
C637        C  0.36928619  0.29749356  0.92192677    -0.53900
C638        C  0.33252474  0.31325186  0.93609920     0.09300
C639        C  0.33704527  0.36153055  0.95257560     0.20200
C640        C  0.38816327  0.37450847  0.90426453    -0.54600
C641        C  0.35243886  0.39088791  0.92041999     0.09400
C642        C  0.41162700  0.34460846  0.96068882    -0.54100
C643        C  0.37575010  0.35825835  0.97843220     0.09900
H644        H  0.37122796  0.26556725  0.90717336     0.14500
H645        H  0.30764711  0.37398016  0.96535674     0.00200
H646        H  0.40227056  0.39009764  0.88078944     0.14800
H647        H  0.44246146  0.34046217  0.97237641     0.14600
C648        C  0.40117678  0.17334635  0.82525685     0.86300
C649        C  0.36487766  0.20731342  0.82359404    -0.53900
C650        C  0.32850251  0.19061099  0.80923645     0.09300
C651        C  0.33348550  0.14171303  0.79423670     0.20200
C652        C  0.38326861  0.13104681  0.84375530    -0.54600
C653        C  0.34804018  0.11372437  0.82742513     0.09400
C654        C  0.40820654  0.15836580  0.78722847    -0.54100
C655        C  0.37277776  0.14438345  0.76913371     0.09900
H656        H  0.36617214  0.23960603  0.83790682     0.14500
H657        H  0.30451550  0.12865892  0.78110073     0.00200
H658        H  0.39700041  0.11636212  0.86774066     0.14800
H659        H  0.43943713  0.16121613  0.77624587     0.14600
C660        C  0.60642116  0.32900411  0.82686872     0.86300
C661        C  0.64278498  0.29510784  0.82623536    -0.53900
C662        C  0.67907696  0.31108547  0.81136610     0.09300
C663        C  0.67431503  0.35955196  0.79549504     0.20200
C664        C  0.62421317  0.37197601  0.84464085    -0.54600
C665        C  0.65959436  0.38867983  0.82799869     0.09400
C666        C  0.59969757  0.34256645  0.78845913    -0.54100
C667        C  0.63513868  0.35641140  0.77032066     0.09900
H668        H  0.64138673  0.26318718  0.84103795     0.14500
H669        H  0.70341034  0.37210800  0.78228218     0.00200
H670        H  0.61034260  0.38756066  0.86821280     0.14800
H671        H  0.56873484  0.33814695  0.77717688     0.14600
C672        C  0.60173700  0.16826383  0.92144628     0.86300
C673        C  0.63764300  0.20281576  0.92194305    -0.53900
C674        C  0.67464477  0.18726920  0.93577486     0.09300
C675        C  0.67048150  0.13876927  0.95191310     0.20200
C676        C  0.61980438  0.12591393  0.90316766    -0.54600
C677        C  0.65552700  0.10962048  0.91944880     0.09400
C678        C  0.59553827  0.15400838  0.95970565    -0.54100
C679        C  0.63148975  0.14121428  0.97757500     0.09900
H680        H  0.63527366  0.23495280  0.90753137     0.14500
H681        H  0.69987905  0.12646619  0.96479746     0.00200
H682        H  0.60584491  0.11038397  0.87960767     0.14800
H683        H  0.56444618  0.15697732  0.97107773     0.14600
O684        O  0.46622194  0.21665262  0.82300920    -0.58000
C685        C  0.56796659  0.30670243  0.84258813     0.74700
O686        O  0.46512375  0.28069968  0.92356698    -0.59100
C687        C  0.43933729  0.19525584  0.84185771     0.74600
C688        C  0.56336222  0.19050967  0.90593827     0.77000
Cd689      Cd  0.50389605  0.25029982  0.87357061     1.37500
O690        O  0.54910584  0.27537116  0.82545625    -0.58000
O691        O  0.55028815  0.18221867  0.87468570    -0.56800
C692        C  0.44377742  0.30943612  0.90569524     0.77000
O693        O  0.54525148  0.22247674  0.92287227    -0.59100
O694        O  0.55460331  0.31531363  0.87372044    -0.57600
O695        O  0.44375348  0.19747425  0.87541545    -0.57600
O696        O  0.45289957  0.31387457  0.87287264    -0.56700
O697        O  0.74940412  0.80923805  0.16804671    -0.58000
C698        C  0.82745594  0.67422012  0.15633405     0.74700
O699        O  0.71936135  0.75089055  0.08339544    -0.59100
C700        C  0.71655748  0.78681761  0.17572443     0.74600
C701        C  0.82709807  0.81943354  0.09464603     0.77000
Cd702      Cd  0.77692552  0.74718352  0.12642226     1.37500
O703        O  0.79661256  0.69127960  0.17306083    -0.58000
O704        O  0.83678273  0.80149754  0.12440510    -0.56800
C705        C  0.71704053  0.70897544  0.07587712     0.77000
O706        O  0.79533030  0.80288236  0.07891330    -0.59100
O707        O  0.83639008  0.69218344  0.12645834    -0.57600
O708        O  0.71627012  0.74554418  0.16605927    -0.57600
O709        O  0.74664286  0.68414591  0.08749746    -0.56700
O710        O  0.20904552  0.79877435  0.17152368    -0.58000
C711        C  0.28900340  0.70980392  0.17190838     0.74700
O712        O  0.21070473  0.69384965  0.07328333    -0.59100
C713        C  0.18121616  0.82002248  0.15401607     0.74600
C714        C  0.29278236  0.78788873  0.07376658     0.77000
Cd715      Cd  0.23056264  0.74829154  0.12166526     1.37500
O716        O  0.28758666  0.75165974  0.16405969    -0.58000
O717        O  0.29273638  0.74645991  0.08311657    -0.56800
C718        C  0.18071116  0.67558354  0.09035858     0.77000
O719        O  0.26047336  0.81076723  0.08225927    -0.59100
O720        O  0.25845644  0.68552808  0.16139510    -0.57600
O721        O  0.17480249  0.80672367  0.12218328    -0.57600
O722        O  0.17242456  0.69247498  0.12072227    -0.56700
C723        C  0.10453212  0.91778741  0.17220907     0.86300
C724        C  0.14066692  0.95211164  0.17382826    -0.53900
C725        C  0.17731943  0.93580696  0.18793596     0.09300
C726        C  0.17252888  0.88686179  0.20291272     0.20200
C727        C  0.12259409  0.87605843  0.15327829    -0.54600
C728        C  0.15790291  0.85894418  0.16951756     0.09400
C729        C  0.09752588  0.90210305  0.21004677    -0.54100
C730        C  0.13316294  0.88930543  0.22824311     0.09900
H731        H  0.13882675  0.98463230  0.15989902     0.14500
H732        H  0.20158358  0.87372747  0.21585965     0.00200
H733        H  0.10889028  0.86147955  0.12923831     0.14800
H734        H  0.06622900  0.90438283  0.22117436     0.14600
C735        C  0.10622509  0.57387079  0.07668793     0.86300
C736        C  0.14366457  0.54149556  0.07671306    -0.53900
C737        C  0.17932693  0.55836395  0.06135718     0.09300
C738        C  0.17291075  0.60609217  0.04445128     0.20200
C739        C  0.12262528  0.61822691  0.09336188    -0.54600
C740        C  0.15748048  0.63558718  0.07637428     0.09400
C741        C  0.09899406  0.58527072  0.03788247    -0.54100
C742        C  0.13367693  0.60082811  0.01952502     0.09900
H743        H  0.14340602  0.51013012  0.09228450     0.14500
H744        H  0.20154848  0.61925163  0.03088931     0.00200
H745        H  0.10859833  0.63387791  0.11683257     0.14800
H746        H  0.06843494  0.57818532  0.02653038     0.14600
C747        C  0.90260587  0.57335296  0.17202357     0.86300
C748        C  0.86546383  0.54039245  0.17197357    -0.53900
C749        C  0.82913828  0.55745285  0.18610966     0.09300
C750        C  0.83495244  0.60556539  0.20254370     0.20200
C751        C  0.88612515  0.61709060  0.15427351    -0.54600
C752        C  0.85074117  0.63442096  0.17047060     0.09400
C753        C  0.90892960  0.58600452  0.21055587    -0.54100
C754        C  0.87378199  0.60161133  0.22807997     0.09900
H755        H  0.86641270  0.50865513  0.15692135     0.14500
H756        H  0.80597002  0.61873172  0.21556311     0.00200
H757        H  0.90061939  0.63246167  0.13089270     0.14800
H758        H  0.93936983  0.57968171  0.22240664     0.14600
C759        C  0.90426771  0.91773329  0.07783848     0.86300
C760        C  0.86789556  0.95181780  0.07752407    -0.53900
C761        C  0.83125332  0.93600187  0.06314928     0.09300
C762        C  0.83584983  0.88767209  0.04704651     0.20200
C763        C  0.88663880  0.87497615  0.09584109    -0.54600
C764        C  0.85092648  0.85849412  0.07962597     0.09400
C765        C  0.91059135  0.90378327  0.03949826    -0.54100
C766        C  0.87477726  0.89112612  0.02137025     0.09900
H767        H  0.86970179  0.98388706  0.09207417     0.14500
H768        H  0.80660141  0.87510480  0.03407190     0.00200
H769        H  0.90065431  0.85958510  0.11943659     0.14800
H770        H  0.94172765  0.90707187  0.02820814     0.14600
O771        O  0.96079200  0.97223618  0.07631421    -0.58000
C772        C  0.06860719  0.55103301  0.09334042     0.74700
O773        O  0.95939860  0.51911138  0.17355732    -0.59100
C774        C  0.94272580  0.94018646  0.09329944     0.74600
C775        C  0.06642516  0.94016898  0.15647413     0.77000
Cd776      Cd  0.00465069  0.49565459  0.12527264     1.37500
O777        O  0.05156669  0.51730562  0.07775713    -0.58000
O778        O  0.05584514  0.93434248  0.12418650    -0.56800
C779        C  0.94097577  0.55089512  0.15654192     0.77000
O780        O  0.04586309  0.96953293  0.17442002    -0.59100
O781        O  0.05380554  0.56213655  0.12356780    -0.57600
O782        O  0.95646737  0.93133155  0.12428976    -0.57600
O783        O  0.95487609  0.56030994  0.12570297    -0.56700
O784        O  0.79544844  0.69510085  0.32259505    -0.58000
C785        C  0.71499793  0.78845930  0.32229223     0.74700
O786        O  0.74636673  0.68623053  0.41093453    -0.59100
C787        C  0.82442526  0.67586697  0.34027164     0.74600
C788        C  0.82377796  0.82295224  0.40369044     0.77000
Cd789      Cd  0.77522493  0.74932310  0.37126352     1.37500
O790        O  0.71384608  0.74786313  0.33350133    -0.58000
O791        O  0.83318612  0.80589549  0.37357796    -0.56800
C792        C  0.71522288  0.71001812  0.42090586     0.77000
O793        O  0.79307980  0.80475280  0.41984933    -0.59100
O794        O  0.74855827  0.81039439  0.32853592    -0.57600
O795        O  0.83174635  0.69189684  0.37113538    -0.57600
O796        O  0.71597649  0.75161458  0.41212370    -0.56700
O797        O  0.21538324  0.69495919  0.42199580    -0.58000
C798        C  0.29165930  0.79300245  0.42287983     0.74700
O799        O  0.25924982  0.68892437  0.33514058    -0.59100
C800        C  0.18242519  0.67960563  0.40735568     0.74600
C801        C  0.17971275  0.82210796  0.34207722     0.77000
Cd802      Cd  0.23101816  0.75200300  0.37452673     1.37500
O803        O  0.29119640  0.75140121  0.41422747    -0.58000
O804        O  0.17542084  0.81071509  0.37458282    -0.56800
C805        C  0.29054763  0.71237757  0.32508577     0.77000
O806        O  0.20626133  0.79966080  0.32396692    -0.59100
O807        O  0.26005767  0.81634529  0.41327815    -0.57600
O808        O  0.17084490  0.69921820  0.37881497    -0.57600
O809        O  0.28980754  0.75426123  0.33303643    -0.56700
C810        C  0.10496893  0.92256186  0.32487421     0.86300
C811        C  0.09837425  0.90973521  0.28628562    -0.53900
C812        C  0.13334157  0.89328112  0.26867311     0.09300
C813        C  0.17220165  0.88908672  0.29419182     0.20200
C814        C  0.12105381  0.87880522  0.34273295    -0.54600
C815        C  0.15619401  0.86089128  0.32661484     0.09400
C816        C  0.14252030  0.95486673  0.32466010    -0.54100
C817        C  0.17848641  0.93749121  0.31013842     0.09900
H818        H  0.06799169  0.91656646  0.27453421     0.14500
H819        H  0.20104074  0.87531446  0.28131512     0.00200
H820        H  0.10673745  0.86403660  0.36643503     0.14800
H821        H  0.14198840  0.98684476  0.33942402     0.14600
C822        C  0.10590285  0.58080284  0.42342611     0.86300
C823        C  0.09921030  0.59478261  0.46167982    -0.54300
C824        C  0.13490793  0.60773606  0.47984056     0.09300
C825        C  0.17407158  0.61093358  0.45452992     0.20200
C826        C  0.12375332  0.62346079  0.40554401    -0.54600
C827        C  0.15921489  0.64003665  0.42198735     0.09400
C828        C  0.14213149  0.54659942  0.42414438    -0.54100
C829        C  0.17870992  0.56252213  0.43862400     0.09900
H830        H  0.06807220  0.59121128  0.47290671     0.14500
H831        H  0.20321200  0.62353371  0.46765967     0.00200
H832        H  0.10986774  0.63891211  0.38192212     0.14800
H833        H  0.14040130  0.51457796  0.40953175     0.14600
C834        C  0.90360172  0.57920137  0.32477157     0.86300
C835        C  0.91005930  0.59380747  0.28665794    -0.53900
C836        C  0.87402021  0.60512841  0.26836801     0.09300
C837        C  0.83463931  0.60683611  0.29348542     0.20200
C838        C  0.88416335  0.62098116  0.34280336    -0.54600
C839        C  0.84835958  0.63641496  0.32615476     0.09400
C840        C  0.86850419  0.54363752  0.32379262    -0.54100
C841        C  0.83136579  0.55827130  0.30940852     0.09900
H842        H  0.94145040  0.59228151  0.27558586     0.14500
H843        H  0.80522795  0.61840815  0.28021172     0.00200
H844        H  0.89750917  0.63699142  0.36641822     0.14800
H845        H  0.87136358  0.51166831  0.33837322     0.14600
C846        C  0.90033672  0.92224953  0.42075512     0.86300
C847        C  0.90672002  0.90805971  0.45903188    -0.53900
C848        C  0.87119856  0.89389062  0.47690518     0.09300
C849        C  0.83204219  0.89132195  0.45135267     0.20200
C850        C  0.88259006  0.87958034  0.40246268    -0.54600
C851        C  0.84699503  0.86262153  0.41860844     0.09400
C852        C  0.86411205  0.95618690  0.42147825    -0.54100
C853        C  0.82748008  0.94007687  0.43563782     0.09900
H854        H  0.93784105  0.91150773  0.47031464     0.14500
H855        H  0.80280108  0.87869468  0.46430079     0.00200
H856        H  0.89666454  0.86439608  0.37882245     0.14800
H857        H  0.86595017  0.98831322  0.40697840     0.14600
O858        O  0.96112481  0.52594574  0.32481905    -0.58000
C859        C  0.06707393  0.94583199  0.34089010     0.74700
O860        O  0.04857409  0.52725367  0.42394013    -0.59100
C861        C  0.94251313  0.55846318  0.34078121     0.74600
C862        C  0.93882126  0.94475559  0.40516728     0.77000
Cd863      Cd  0.00289705  0.00094213  0.37366951     1.37500
O864        O  0.05115939  0.98057529  0.32578659    -0.58000
O865        O  0.95251822  0.93580621  0.37418585    -0.56800
C866        C  0.06756874  0.55897112  0.40733388     0.77000
O867        O  0.95723770  0.97662781  0.42209105    -0.59100
O868        O  0.05089897  0.93384136  0.37035443    -0.57600
O869        O  0.95625486  0.56942942  0.37135774    -0.57600
O870        O  0.05470044  0.56828792  0.37613564    -0.56700
O871        O  0.29527513  0.55604901  0.17348770    -0.58000
C872        C  0.21675955  0.95696243  0.17446771     0.74700
O873        O  0.24690818  0.56467262  0.08990760    -0.59100
C874        C  0.32731764  0.57207147  0.15780825     0.74600
C875        C  0.32621366  0.92525014  0.09335202     0.77000
Cd876      Cd  0.27821828  0.99778064  0.12669312     1.37500
O877        O  0.21691943  0.99847250  0.16546645    -0.58000
O878        O  0.33613774  0.94197027  0.12348853    -0.56800
C879        C  0.21905419  0.53976014  0.07564997     0.77000
O880        O  0.29513021  0.94327164  0.07767323    -0.59100
O881        O  0.24933344  0.93427971  0.16633542    -0.57600
O882        O  0.33776579  0.55274794  0.12880571    -0.57600
O883        O  0.22280142  0.49731638  0.08026060    -0.56700
O884        O  0.71000932  0.94583221  0.17349340    -0.58000
C885        C  0.78969033  0.53921063  0.17055169     0.74700
O886        O  0.76016742  0.93421930  0.08632978    -0.59100
C887        C  0.68126337  0.92572588  0.15613218     0.74600
C888        C  0.67855245  0.57234437  0.08820264     0.77000
Cd889      Cd  0.73058534  0.99888782  0.12395517     1.37500
O890        O  0.78571075  0.49691699  0.16527772    -0.58000
O891        O  0.67132156  0.55704549  0.11931209    -0.56800
C892        C  0.79181045  0.95721746  0.07637330     0.77000
O893        O  0.70761576  0.55262692  0.07094335    -0.59100
O894        O  0.76176006  0.56447589  0.15671769    -0.57600
O895        O  0.67370590  0.94107881  0.12509274    -0.57600
O896        O  0.79086061  0.99932363  0.08346337    -0.56700
C897        C  0.60398544  0.67401886  0.07298059     0.86300
C898        C  0.59846004  0.66359673  0.03395684    -0.53900
C899        C  0.63381652  0.64817502  0.01647630     0.09300
C900        C  0.67213027  0.64264746  0.04253855     0.20200
C901        C  0.61979674  0.62929931  0.08958768    -0.54600
C902        C  0.65546605  0.61234868  0.07361306     0.09400
C903        C  0.64124432  0.70658782  0.07464194    -0.54100
C904        C  0.67772857  0.69013825  0.06039901     0.09900
H905        H  0.56838628  0.67121539  0.02191405     0.14500
H906        H  0.70134739  0.62984311  0.02967042     0.00200
H907        H  0.60478105  0.61313077  0.11239615     0.14800
H908        H  0.64000916  0.73774252  0.09042857     0.14600
C909        C  0.40403772  0.82869017  0.07455690     0.86300
C910        C  0.41055182  0.84484881  0.03684780    -0.53900
C911        C  0.37458210  0.85750529  0.01899023     0.09300
C912        C  0.33527293  0.85833863  0.04440391     0.20200
C913        C  0.38524720  0.86982869  0.09375358    -0.54600
C914        C  0.34951043  0.88630783  0.07782016     0.09400
C915        C  0.36872599  0.79342265  0.07279391    -0.54100
C916        C  0.33162741  0.80905148  0.05911954     0.09900
H917        H  0.44189765  0.84355050  0.02578411     0.14500
H918        H  0.30588252  0.87075682  0.03157417     0.00200
H919        H  0.39896692  0.88464029  0.11770202     0.14800
H920        H  0.37130958  0.76088347  0.08661465     0.14600
C921        C  0.40175159  0.67388871  0.17151202     0.86300
C922        C  0.40823772  0.66300608  0.21044231    -0.53900
C923        C  0.37315898  0.64810775  0.22860855     0.09300
C924        C  0.33432507  0.64260935  0.20320637     0.20200
C925        C  0.38548863  0.62937879  0.15505058    -0.54600
C926        C  0.35027148  0.61241562  0.17172444     0.09400
C927        C  0.36455925  0.70649383  0.17069104    -0.54100
C928        C  0.32854306  0.69018004  0.18580134     0.09900
H929        H  0.43877889  0.66985280  0.22192005     0.14500
H930        H  0.30537675  0.62982081  0.21651609     0.00200
H931        H  0.39993888  0.61329591  0.13194722     0.14800
H932        H  0.36546704  0.73781009  0.15508030     0.14600
C933        C  0.60472652  0.82647460  0.17273395     0.86300
C934        C  0.59752201  0.84115511  0.21072022    -0.53900
C935        C  0.63283603  0.85565810  0.22869305     0.09300
C936        C  0.67248255  0.85753369  0.20383551     0.20200
C937        C  0.62296265  0.86871118  0.15426391    -0.54600
C938        C  0.65819001  0.88582002  0.17073293     0.09400
C939        C  0.64071659  0.79222893  0.17437579    -0.54100
C940        C  0.67718734  0.80835845  0.18890496     0.09900
H941        H  0.56646483  0.83699643  0.22190235     0.14500
H942        H  0.70148647  0.87040567  0.21699634     0.00200
H943        H  0.60928484  0.88373857  0.13038705     0.14800
H944        H  0.63885438  0.75972139  0.16042679     0.14600
O945        O  0.54814547  0.72952568  0.07337407    -0.58000
C946        C  0.44255599  0.80736822  0.09027182     0.74700
O947        O  0.45677829  0.73006870  0.17066461    -0.59100
C948        C  0.56564670  0.69602018  0.08898207     0.74600
C949        C  0.56655200  0.80463433  0.15655455     0.77000
Cd950      Cd  0.50360373  0.75093853  0.12279474     1.37500
O951        O  0.46325378  0.77788537  0.07262561    -0.58000
O952        O  0.55262625  0.81577433  0.12611503    -0.56800
C953        C  0.43970416  0.69628858  0.15514770     0.77000
O954        O  0.54841417  0.77168476  0.17233056    -0.59100
O955        O  0.45329351  0.81411932  0.12239974    -0.57600
O956        O  0.55119584  0.68467402  0.11924474    -0.57600
O957        O  0.45464015  0.68481801  0.12507162    -0.56700
O958        O  0.29593418  0.94722775  0.42352130    -0.58000
C959        C  0.21799428  0.54198657  0.42470051     0.74700
O960        O  0.29423056  0.55757284  0.32692512    -0.59100
C961        C  0.32741463  0.92991818  0.40785422     0.74600
C962        C  0.21823723  0.95725200  0.32401470     0.77000
Cd963      Cd  0.27627552  0.00041403  0.37398559     1.37500
O964        O  0.21903834  0.50003419  0.41720437    -0.58000
O965        O  0.22170707  0.99992080  0.32759278    -0.56800
C966        C  0.32628192  0.57439309  0.34207844     0.77000
O967        O  0.24651861  0.93341203  0.33880396    -0.59100
O968        O  0.24910864  0.56551834  0.41432643    -0.57600
O969        O  0.33657545  0.94664076  0.37754393    -0.57600
O970        O  0.33691742  0.55630676  0.37153686    -0.56700
O971        O  0.70802059  0.94889546  0.32313121    -0.58000
C972        C  0.79249543  0.53718323  0.32389997     0.74700
O973        O  0.71406412  0.55957108  0.41895082    -0.59100
C974        C  0.68079688  0.92758347  0.34133724     0.74600
C975        C  0.78851400  0.96094743  0.42128162     0.77000
Cd976      Cd  0.72907730  0.00165803  0.37247167     1.37500
O977        O  0.75816102  0.55869825  0.32797067    -0.58000
O978        O  0.75692445  0.93779059  0.41144256    -0.56800
C979        C  0.68078843  0.57401947  0.40431186     0.77000
O980        O  0.78822037  0.00274059  0.41302786    -0.59100
O981        O  0.79425411  0.49788205  0.33762671    -0.57600
O982        O  0.67427930  0.94217269  0.37274521    -0.57600
O983        O  0.66990612  0.55411199  0.37566354    -0.56700
C984        C  0.40406212  0.83093094  0.42445563     0.86300
C985        C  0.36743473  0.79745034  0.42355447    -0.53900
C986        C  0.33070219  0.81327798  0.43767347     0.09300
C987        C  0.33547022  0.86100401  0.45499228     0.20200
C988        C  0.38722443  0.87470842  0.40732778    -0.54600
C989        C  0.35133634  0.89108373  0.42329936     0.09400
C990        C  0.40990621  0.84292294  0.46322899    -0.54100
C991        C  0.37402392  0.85630260  0.48102819     0.09900
H992        H  0.36923501  0.76592164  0.40826705     0.14500
H993        H  0.30607560  0.87334636  0.46785279     0.00200
H994        H  0.40164827  0.89057099  0.38411553     0.14800
H995        H  0.44065376  0.83806237  0.47483449     0.14600
C996        C  0.40264691  0.67354654  0.32557699     0.86300
C997        C  0.36627581  0.70742610  0.32554485    -0.53900
C998        C  0.32971270  0.69165378  0.31106520     0.09300
C999        C  0.33435665  0.64336751  0.29469584     0.20200
C1000       C  0.38525050  0.63041074  0.34318619    -0.54600
C1001       C  0.34957923  0.61387090  0.32699360     0.09400
C1002       C  0.40903585  0.66039476  0.28711460    -0.54100
C1003       C  0.37336554  0.64708342  0.26910695     0.09900
H1004       H  0.36801967  0.73924081  0.34047185     0.14500
H1005       H  0.30510408  0.63091531  0.28166512     0.00200
H1006       H  0.39944130  0.61479053  0.36660695     0.14800
H1007       H  0.44009627  0.66423430  0.27575491     0.14600
C1008       C  0.60377835  0.82913185  0.32500804     0.86300
C1009       C  0.63925812  0.79428007  0.32297462    -0.53900
C1010       C  0.67598139  0.81003057  0.30866856     0.09300
C1011       C  0.67191679  0.85919703  0.29392390     0.20200
C1012       C  0.62268876  0.87068809  0.34376490    -0.54600
C1013       C  0.65792333  0.88748037  0.32713952     0.09400
C1014       C  0.59667499  0.84472571  0.28714567    -0.54100
C1015       C  0.63240933  0.85771843  0.26900517     0.09900
H1016       H  0.63694740  0.76167668  0.33674136     0.14500
H1017       H  0.70104550  0.87181678  0.28081103     0.00200
H1018       H  0.60921361  0.88579106  0.36769181     0.14800
H1019       H  0.56542660  0.84198425  0.27604881     0.14600
C1020       C  0.60337048  0.67226423  0.42141246     0.86300
C1021       C  0.63962230  0.70622246  0.42211591    -0.53900
C1022       C  0.67625924  0.69009114  0.43622820     0.09300
C1023       C  0.67142590  0.64153847  0.45219193     0.20200
C1024       C  0.62099186  0.62949085  0.40324092    -0.54600
C1025       C  0.65664887  0.61281152  0.41940962     0.09400
C1026       C  0.59672368  0.65837646  0.45966999    -0.54100
C1027       C  0.63214700  0.64428411  0.47767404     0.09900
H1028       H  0.63788387  0.73818142  0.40737175     0.14500
H1029       H  0.70057790  0.62894166  0.46530224     0.00200
H1030       H  0.60712537  0.61438866  0.37947475     0.14800
H1031       H  0.56569033  0.66246382  0.47087900     0.14600
O1032       O  0.45848387  0.72871677  0.32538840    -0.58000
C1033       C  0.56560104  0.80726072  0.34118683     0.74700
O1034       O  0.46023350  0.77579999  0.42428059    -0.59100
C1035       C  0.44081286  0.69575257  0.34152636     0.74600
C1036       C  0.56526559  0.69482407  0.40571724     0.77000
Cd1037     Cd  0.50316707  0.75177212  0.37418256     1.37500
O1038       O  0.54597704  0.77620563  0.32435184    -0.58000
O1039       O  0.55212246  0.68622547  0.37450973    -0.56800
C1040       C  0.44215934  0.80863223  0.40827610     0.77000
O1041       O  0.54696978  0.72669894  0.42269078    -0.59100
O1042       O  0.55370121  0.81563851  0.37278265    -0.57600
O1043       O  0.45467261  0.68566933  0.37223963    -0.57600
O1044       O  0.45507229  0.81809217  0.37715377    -0.56700
O1045       O  0.74600847  0.81088690  0.66388807    -0.58000
C1046       C  0.82633527  0.67610356  0.65572071     0.74700
O1047       O  0.71588550  0.74914501  0.58294901    -0.59100
C1048       C  0.71489646  0.78751133  0.67447258     0.74600
C1049       C  0.82507762  0.81697112  0.59062214     0.77000
Cd1050     Cd  0.77451542  0.74696778  0.62480745     1.37500
O1051       O  0.79782983  0.69556860  0.67376059    -0.58000
O1052       O  0.83158584  0.80382969  0.62245254    -0.56800
C1053       C  0.71389714  0.70700537  0.57609978     0.77000
O1054       O  0.79619441  0.79650354  0.57372396    -0.59100
O1055       O  0.83204408  0.69067838  0.62421931    -0.57600
O1056       O  0.71558310  0.74562083  0.66656213    -0.57600
O1057       O  0.74354688  0.68261822  0.58819126    -0.56700
O1058       O  0.20358038  0.79469377  0.67586674    -0.58000
C1059       C  0.29271198  0.71159021  0.67271405     0.74700
O1060       O  0.21085103  0.69495429  0.57604086    -0.59100
C1061       C  0.17729619  0.81706618  0.65746454     0.74600
C1062       C  0.28800635  0.79057167  0.57645489     0.77000
Cd1063     Cd  0.22955586  0.74820157  0.62529762     1.37500
O1064       O  0.29385449  0.75123650  0.65958043    -0.58000
O1065       O  0.28439798  0.74785832  0.57990198    -0.56800
C1066       C  0.18243488  0.67430668  0.59331378     0.77000
O1067       O  0.25982220  0.81473135  0.59115253    -0.59100
O1068       O  0.25890069  0.68950523  0.66812492    -0.57600
O1069       O  0.17342292  0.80569562  0.62491326    -0.57600
O1070       O  0.17461999  0.68908370  0.62442953    -0.56700
C1071       C  0.10188465  0.91667028  0.67297061     0.86300
C1072       C  0.13919658  0.94951208  0.67235504    -0.53900
C1073       C  0.17532502  0.93310868  0.68738919     0.09300
C1074       C  0.16960265  0.88545213  0.70441151     0.20200
C1075       C  0.11828721  0.87269468  0.65608204    -0.54600
C1076       C  0.15358243  0.85582373  0.67256915     0.09400
C1077       C  0.09556038  0.90484224  0.71182176    -0.54100
C1078       C  0.13097415  0.89092417  0.72998550     0.09900
H1079       H  0.13821248  0.98129320  0.65740551     0.14500
H1080       H  0.19863590  0.87237266  0.71743452     0.00200
H1081       H  0.10406327  0.85703546  0.63268204     0.14800
H1082       H  0.06482046  0.91030769  0.72333682     0.14600
C1083       C  0.10729135  0.57458604  0.57591940     0.86300
C1084       C  0.14374294  0.54092046  0.57443342    -0.53900
C1085       C  0.18007973  0.55785129  0.56024868     0.09300
C1086       C  0.17480276  0.60689052  0.54530841     0.20200
C1087       C  0.12476172  0.61694909  0.59463954    -0.54600
C1088       C  0.15988845  0.63456041  0.57842576     0.09400
C1089       C  0.10027034  0.58931271  0.53794458    -0.54100
C1090       C  0.13543321  0.60457338  0.52018140     0.09900
H1091       H  0.14241352  0.50857478  0.58866282     0.14500
H1092       H  0.20373354  0.62023575  0.53231233     0.00200
H1093       H  0.11077348  0.63159635  0.61853069     0.14800
H1094       H  0.06926476  0.58480358  0.52666857     0.14600
C1095       C  0.90455825  0.57851500  0.67126050     0.86300
C1096       C  0.86853842  0.54419461  0.67189382    -0.53900
C1097       C  0.83193274  0.55990486  0.68635266     0.09300
C1098       C  0.83648593  0.60828293  0.70259481     0.20200
C1099       C  0.88638945  0.62125959  0.65346052    -0.54600
C1100       C  0.85085465  0.63745778  0.67012425     0.09400
C1101       C  0.91132624  0.59211132  0.70957291    -0.54100
C1102       C  0.87584776  0.60573981  0.72770567     0.09900
H1103       H  0.87028678  0.51244913  0.65687850     0.14500
H1104       H  0.80731167  0.62049001  0.71588265     0.00200
H1105       H  0.89991397  0.63685957  0.62975413     0.14800
H1106       H  0.94244438  0.58824341  0.72068765     0.14600
C1107       C  0.90082270  0.91650190  0.57476729     0.86300
C1108       C  0.86351400  0.94911215  0.57581657    -0.53900
C1109       C  0.82738822  0.93301053  0.56068579     0.09300
C1110       C  0.83300314  0.88554383  0.54319949     0.20200
C1111       C  0.88456791  0.87215275  0.59123054    -0.54600
C1112       C  0.84904489  0.85546226  0.57488060     0.09400
C1113       C  0.90703015  0.90555561  0.53576616    -0.54100
C1114       C  0.87165998  0.89150133  0.51751057     0.09900
H1115       H  0.86454246  0.98056010  0.59123085     0.14500
H1116       H  0.80391019  0.87271570  0.53011589     0.00200
H1117       H  0.89887922  0.85631320  0.61451149     0.14800
H1118       H  0.93756168  0.91223514  0.52426131     0.14600
O1119       O  0.95687874  0.97189457  0.57522307    -0.58000
C1120       C  0.06905669  0.55241542  0.59156163     0.74700
O1121       O  0.96154046  0.52484663  0.67227365    -0.59100
C1122       C  0.93883792  0.93909805  0.59126618     0.74600
C1123       C  0.06365968  0.93875742  0.65650598     0.77000
Cd1124     Cd  0.00437404  0.49957581  0.62338128     1.37500
O1125       O  0.05238996  0.51843570  0.57599316    -0.58000
O1126       O  0.05551441  0.93554220  0.62347546    -0.56800
C1127       C  0.94282949  0.55653372  0.65537141     0.77000
O1128       O  0.04056531  0.96557761  0.67468976    -0.59100
O1129       O  0.05303908  0.56490092  0.62093803    -0.57600
O1130       O  0.95226630  0.92952110  0.62227590    -0.57600
O1131       O  0.95566707  0.56533305  0.62408775    -0.56700
O1132       O  0.80284452  0.70214618  0.82251786    -0.58000
C1133       C  0.71691571  0.79117707  0.82399226     0.74700
O1134       O  0.74803941  0.68927646  0.91169790    -0.59100
C1135       C  0.82858380  0.67910321  0.84100486     0.74600
C1136       C  0.82781890  0.82376724  0.90694859     0.77000
Cd1137     Cd  0.77820775  0.75209153  0.87309479     1.37500
O1138       O  0.71997140  0.74896811  0.83024816    -0.58000
O1139       O  0.83530702  0.80969563  0.87551665    -0.56800
C1140       C  0.71650239  0.71284481  0.92104353     0.77000
O1141       O  0.79899048  0.80313894  0.92374836    -0.59100
O1142       O  0.74623637  0.81597861  0.83620495    -0.57600
O1143       O  0.83277078  0.69128257  0.87334313    -0.57600
O1144       O  0.71732362  0.75450242  0.91254931    -0.56700
O1145       O  0.21116102  0.69519402  0.92411193    -0.58000
C1146       C  0.29048733  0.79216277  0.92326556     0.74700
O1147       O  0.25776732  0.68887676  0.83459194    -0.59100
C1148       C  0.18032848  0.67764266  0.90768180     0.74600
C1149       C  0.17921263  0.82226174  0.84327247     0.77000
Cd1150     Cd  0.22950394  0.75076999  0.87554591     1.37500
O1151       O  0.28942891  0.75012194  0.91591197    -0.58000
O1152       O  0.17387986  0.80939875  0.87532442    -0.56800
C1153       C  0.28988628  0.71213191  0.82625858     0.77000
O1154       O  0.20624665  0.80045211  0.82521124    -0.59100
O1155       O  0.25895987  0.81542541  0.91338264    -0.57600
O1156       O  0.17122366  0.69520547  0.87770977    -0.57600
O1157       O  0.28984957  0.75330139  0.83618477    -0.56700
C1158       C  0.10321749  0.92186654  0.82670144     0.86300
C1159       C  0.09643894  0.90823904  0.78842151    -0.53900
C1160       C  0.13169438  0.89353683  0.77046172     0.09300
C1161       C  0.17102930  0.89039538  0.79581023     0.20200
C1162       C  0.12054195  0.87881188  0.84470134    -0.54600
C1163       C  0.15585131  0.86161652  0.82833562     0.09400
C1164       C  0.13975354  0.95536781  0.82606041    -0.54100
C1165       C  0.17625049  0.93898888  0.81191602     0.09900
H1166       H  0.06536294  0.91263892  0.77722694     0.14500
H1167       H  0.20007997  0.87747103  0.78273510     0.00200
H1168       H  0.10652821  0.86363501  0.86836844     0.14800
H1169       H  0.13817198  0.98743287  0.84066288     0.14600
C1170       C  0.10282626  0.57915441  0.92221040     0.86300
C1171       C  0.09688411  0.59097039  0.96108503    -0.54300
C1172       C  0.13290450  0.60310269  0.97910103     0.09300
C1173       C  0.17172802  0.60715881  0.95340215     0.20200
C1174       C  0.12067974  0.62257544  0.90545537    -0.54600
C1175       C  0.15662368  0.63800996  0.92190438     0.09400
C1176       C  0.13874141  0.54474353  0.92136540    -0.54100
C1177       C  0.17567191  0.55947755  0.93587533     0.09900
H1178       H  0.06595528  0.58724478  0.97271849     0.14500
H1179       H  0.20124615  0.61875505  0.96647565     0.00200
H1180       H  0.10655965  0.63921365  0.88243178     0.14800
H1181       H  0.13627303  0.51324908  0.90614142     0.14600
C1182       C  0.90595274  0.58062303  0.82438141     0.86300
C1183       C  0.91218580  0.59431765  0.78604622    -0.53900
C1184       C  0.87629866  0.60722139  0.76815004     0.09300
C1185       C  0.83727854  0.61002747  0.79373260     0.20200
C1186       C  0.88782996  0.62318392  0.84241341    -0.54600
C1187       C  0.85209908  0.63951495  0.82617752     0.09400
C1188       C  0.87015327  0.54605804  0.82402476    -0.54100
C1189       C  0.83325982  0.56143101  0.80983973     0.09900
H1190       H  0.94317804  0.59065732  0.77464779     0.14500
H1191       H  0.80788213  0.62222761  0.78079106     0.00200
H1192       H  0.90182304  0.63887497  0.86588890     0.14800
H1193       H  0.87253276  0.51402331  0.83858774     0.14600
C1194       C  0.90314122  0.92359913  0.92488413     0.86300
C1195       C  0.90953134  0.91007777  0.96321162    -0.53900
C1196       C  0.87422889  0.89475298  0.98084603     0.09300
C1197       C  0.83518645  0.89157339  0.95513929     0.20200
C1198       C  0.88623043  0.88055546  0.90664285    -0.54600
C1199       C  0.85080193  0.86308808  0.92254306     0.09400
C1200       C  0.86650101  0.95696158  0.92533297    -0.54100
C1201       C  0.82989340  0.94026417  0.93916775     0.09900
H1202       H  0.94030438  0.91537420  0.97471230     0.14500
H1203       H  0.80607614  0.87841571  0.96796915     0.00200
H1204       H  0.90056707  0.86564054  0.88300761     0.14800
H1205       H  0.86817218  0.98910002  0.91084268     0.14600
O1206       O  0.96390230  0.52793977  0.82309291    -0.58000
C1207       C  0.06531865  0.94473854  0.84268464     0.74700
O1208       O  0.04446731  0.52730783  0.92289177    -0.59100
C1209       C  0.94431986  0.55879867  0.84021838     0.74600
C1210       C  0.94124017  0.94609513  0.90902905     0.77000
Cd1211     Cd  0.00335440  0.00148272  0.87566543     1.37500
O1212       O  0.04812657  0.97814187  0.82668486    -0.58000
O1213       O  0.95572541  0.93520691  0.87870745    -0.56800
C1214       C  0.06449116  0.55785185  0.90580601     0.77000
O1215       O  0.95853603  0.97954275  0.92487263    -0.59100
O1216       O  0.05111839  0.93459095  0.87326317    -0.57600
O1217       O  0.95572564  0.56621434  0.87207453    -0.57600
O1218       O  0.05371876  0.56495328  0.87363574    -0.56700
O1219       O  0.29694248  0.55433383  0.67418471    -0.58000
C1220       C  0.21539109  0.95389924  0.67537901     0.74700
O1221       O  0.24917988  0.56279292  0.58665342    -0.59100
C1222       C  0.32676213  0.57302628  0.65722723     0.74600
C1223       C  0.32578249  0.92576373  0.59481082     0.77000
Cd1224     Cd  0.27586598  0.99626268  0.62800234     1.37500
O1225       O  0.21727066  0.99633092  0.66985738    -0.58000
O1226       O  0.33275795  0.93957078  0.62638854    -0.56800
C1227       C  0.21924110  0.53832862  0.57520955     0.77000
O1228       O  0.29696405  0.94606888  0.57767165    -0.59100
O1229       O  0.24636820  0.93055882  0.66442493    -0.57600
O1230       O  0.33547250  0.55627114  0.62687742    -0.57600
O1231       O  0.22103910  0.49632841  0.58261095    -0.56700
O1232       O  0.70644477  0.94665908  0.67217135    -0.58000
C1233       C  0.79286219  0.53997626  0.67133880     0.74700
O1234       O  0.75626180  0.93100587  0.58349200    -0.59100
C1235       C  0.67978915  0.92400931  0.65432000     0.74600
C1236       C  0.67915853  0.57111420  0.59162966     0.77000
Cd1237     Cd  0.72844684  0.99623363  0.62157623     1.37500
O1238       O  0.79146840  0.49807839  0.66359202    -0.58000
O1239       O  0.67297056  0.55669806  0.62318837    -0.56800
C1240       C  0.78768498  0.95404002  0.57314705     0.77000
O1241       O  0.70779661  0.55127093  0.57405546    -0.59100
O1242       O  0.76213893  0.56394414  0.66071982    -0.57600
O1243       O  0.67417943  0.93620078  0.62212342    -0.57600
O1244       O  0.78675909  0.99620152  0.57990318    -0.56700
C1245       C  0.60207985  0.66959207  0.57470525     0.86300
C1246       C  0.59576698  0.65619155  0.53624452    -0.53900
C1247       C  0.63154563  0.64276857  0.51831309     0.09300
C1248       C  0.67036102  0.63920008  0.54412563     0.20200
C1249       C  0.61953774  0.62662616  0.59266565    -0.54600
C1250       C  0.65514984  0.60998608  0.57651867     0.09400
C1251       C  0.63838170  0.70354079  0.57452714    -0.54100
C1252       C  0.67505575  0.68747372  0.56051026     0.09900
H1253       H  0.56485076  0.66053475  0.52483359     0.14500
H1254       H  0.69965289  0.62670659  0.53118903     0.00200
H1255       H  0.60552682  0.61125718  0.61626881     0.14800
H1256       H  0.63667878  0.73532087  0.58951985     0.14600
C1257       C  0.40082438  0.82581783  0.57810472     0.86300
C1258       C  0.40799582  0.83919616  0.53977639    -0.53900
C1259       C  0.37312123  0.85444730  0.52158136     0.09300
C1260       C  0.33383347  0.85852216  0.54674443     0.20200
C1261       C  0.38417737  0.86914261  0.59596804    -0.54600
C1262       C  0.34918602  0.88683442  0.57947711     0.09400
C1263       C  0.36364457  0.79299074  0.57740412    -0.54100
C1264       C  0.32772824  0.81012522  0.56262168     0.09900
H1265       H  0.43891628  0.83386008  0.52866143     0.14500
H1266       H  0.30508054  0.87200552  0.53354029     0.00200
H1267       H  0.39816783  0.88392398  0.61981346     0.14800
H1268       H  0.36423677  0.76102796  0.59219012     0.14600
C1269       C  0.40400001  0.67101203  0.67344320     0.86300
C1270       C  0.40991893  0.65717731  0.71176708    -0.53900
C1271       C  0.37372269  0.64490032  0.72952490     0.09300
C1272       C  0.33495663  0.64247638  0.70377998     0.20200
C1273       C  0.38574635  0.62870437  0.65538657    -0.54600
C1274       C  0.34986792  0.61283160  0.67154127     0.09400
C1275       C  0.36857560  0.70601258  0.67359211    -0.54100
C1276       C  0.33147237  0.69090830  0.68750447     0.09900
H1277       H  0.44099634  0.65990592  0.72312870     0.14500
H1278       H  0.30538202  0.63061063  0.71661310     0.00200
H1279       H  0.39986013  0.61272868  0.63208077     0.14800
H1280       H  0.37132506  0.73798200  0.65899516     0.14600
C1281       C  0.60333254  0.82583602  0.67308134     0.86300
C1282       C  0.59626805  0.84191024  0.71081432    -0.53900
C1283       C  0.63183391  0.85622324  0.72862653     0.09300
C1284       C  0.67122264  0.85764490  0.70341239     0.20200
C1285       C  0.62150367  0.86733501  0.65372681    -0.54600
C1286       C  0.65672032  0.88488124  0.66982967     0.09400
C1287       C  0.63930926  0.79157977  0.67532829    -0.54100
C1288       C  0.67593330  0.80821208  0.68915093     0.09900
H1289       H  0.56510962  0.83858574  0.72205362     0.14500
H1290       H  0.70028677  0.87090723  0.71624759     0.00200
H1291       H  0.60783076  0.88156231  0.62954544     0.14800
H1292       H  0.63748463  0.75882802  0.66171024     0.14600
O1293       O  0.54562663  0.72424009  0.57449684    -0.58000
C1294       C  0.43877699  0.80292916  0.59387703     0.74700
O1295       O  0.46111332  0.72421709  0.67425208    -0.59100
C1296       C  0.56403968  0.69181604  0.59077599     0.74600
C1297       C  0.56539059  0.80328768  0.65716897     0.77000
Cd1298     Cd  0.50306741  0.74783911  0.62463631     1.37500
O1299       O  0.45639281  0.77034117  0.57725527    -0.58000
O1300       O  0.55186513  0.81295189  0.62624288    -0.56800
C1301       C  0.44256555  0.69209264  0.65778149     0.77000
O1302       O  0.54739321  0.77079924  0.67362593    -0.59100
O1303       O  0.45338959  0.81301532  0.62434234    -0.57600
O1304       O  0.55136789  0.68247726  0.62198714    -0.57600
O1305       O  0.45558740  0.68219625  0.62678623    -0.56700
O1306       O  0.30082731  0.95100040  0.92448087    -0.58000
C1307       C  0.21470622  0.53833650  0.92175166     0.74700
O1308       O  0.29477797  0.55574097  0.82510854    -0.59100
C1309       C  0.32814665  0.92987815  0.90628036     0.74600
C1310       C  0.21534279  0.95959338  0.82667006     0.77000
Cd1311     Cd  0.27647138  0.00086079  0.87487413     1.37500
O1312       O  0.21349197  0.49838397  0.90924113    -0.58000
O1313       O  0.21564511  0.00119481  0.83552293    -0.56800
C1314       C  0.32508662  0.57407188  0.84173491     0.77000
O1315       O  0.24715666  0.93650910  0.83607702    -0.59100
O1316       O  0.24864800  0.56010435  0.91679446    -0.57600
O1317       O  0.33356270  0.94348974  0.87444599    -0.57600
O1318       O  0.33406125  0.55707078  0.87192345    -0.56700
O1319       O  0.71059115  0.94454462  0.82590326    -0.58000
C1320       C  0.79426771  0.54010054  0.82392336     0.74700
O1321       O  0.71439389  0.55875999  0.91953967    -0.59100
C1322       C  0.68069373  0.92567666  0.84263583     0.74600
C1323       C  0.79073739  0.96019476  0.92395727     0.77000
Cd1324     Cd  0.72956438  0.99825464  0.87444686     1.37500
O1325       O  0.76088494  0.56229886  0.83019244    -0.58000
O1326       O  0.75828550  0.93697703  0.91647778    -0.56800
C1327       C  0.68330045  0.57576465  0.90315029     0.77000
O1328       O  0.79080777  0.00091078  0.91291224    -0.59100
O1329       O  0.79511627  0.49952985  0.83528397    -0.57600
O1330       O  0.67236753  0.94143283  0.87339995    -0.57600
O1331       O  0.67407671  0.55777080  0.87332651    -0.56700
C1332       C  0.40334107  0.82948062  0.92200002     0.86300
C1333       C  0.36638717  0.79641143  0.92193214    -0.53900
C1334       C  0.33012199  0.81290898  0.93649776     0.09300
C1335       C  0.33564866  0.86109514  0.95299323     0.20200
C1336       C  0.38665778  0.87308659  0.90445557    -0.54600
C1337       C  0.35138616  0.89027874  0.92085522     0.09400
C1338       C  0.40984160  0.84204107  0.96057006    -0.54100
C1339       C  0.37455613  0.85684426  0.97849144     0.09900
H1340       H  0.36763415  0.76446316  0.90717543     0.14500
H1341       H  0.30661922  0.87417011  0.96600783     0.00200
H1342       H  0.40094988  0.88854613  0.88101423     0.14800
H1343       H  0.44042546  0.83590340  0.97209224     0.14600
C1344       C  0.40163904  0.67342342  0.82640718     0.86300
C1345       C  0.36550619  0.70743443  0.82615710    -0.53900
C1346       C  0.32892428  0.69172714  0.81162490     0.09300
C1347       C  0.33357387  0.64338642  0.79513656     0.20200
C1348       C  0.38395690  0.63028674  0.84390039    -0.54600
C1349       C  0.34839404  0.61386396  0.82739832     0.09400
C1350       C  0.40827186  0.66052195  0.78802719    -0.54100
C1351       C  0.37291154  0.64653404  0.76993157     0.09900
H1352       H  0.36738617  0.73920337  0.84110235     0.14500
H1353       H  0.30442002  0.63106392  0.78186836     0.00200
H1354       H  0.39798372  0.61444823  0.86730337     0.14800
H1355       H  0.43921803  0.66525704  0.77687766     0.14600
C1356       C  0.60444050  0.82695799  0.82511403     0.86300
C1357       C  0.64100733  0.79315484  0.82323221    -0.53900
C1358       C  0.67733386  0.81020522  0.80903792     0.09300
C1359       C  0.67173002  0.85910434  0.79410468     0.20200
C1360       C  0.62222894  0.86910460  0.84390566    -0.54600
C1361       C  0.65726701  0.88664938  0.82749084     0.09400
C1362       C  0.59696807  0.84222740  0.78728196    -0.54100
C1363       C  0.63213327  0.85661994  0.76912186     0.09900
H1364       H  0.63991076  0.76079633  0.83743905     0.14500
H1365       H  0.70050341  0.87252370  0.78090939     0.00200
H1366       H  0.60868416  0.88347465  0.86808117     0.14800
H1367       H  0.56578854  0.83826036  0.77621425     0.14600
C1368       C  0.60495773  0.67300125  0.91986818     0.86300
C1369       C  0.64060091  0.70795698  0.92114169    -0.53900
C1370       C  0.67740253  0.69237372  0.93541613     0.09300
C1371       C  0.67338521  0.64365086  0.95082631     0.20200
C1372       C  0.62369222  0.63119653  0.90128319    -0.54600
C1373       C  0.65935733  0.61496413  0.91771668     0.09400
C1374       C  0.59825642  0.65771611  0.95776819    -0.54100
C1375       C  0.63401553  0.64561122  0.97602959     0.09900
H1376       H  0.63848066  0.74008869  0.90668710     0.14500
H1377       H  0.70260721  0.63141724  0.96403589     0.00200
H1378       H  0.61016742  0.61595030  0.87742710     0.14800
H1379       H  0.56681275  0.65921105  0.96873685     0.14600
O1380       O  0.45772999  0.72807647  0.82579457    -0.58000
C1381       C  0.56634135  0.80460408  0.84101153     0.74700
O1382       O  0.45905580  0.77394927  0.92256568    -0.59100
C1383       C  0.44001210  0.69528665  0.84214412     0.74600
C1384       C  0.56622760  0.69472077  0.90465751     0.77000
Cd1385     Cd  0.50320726  0.75024852  0.87363873     1.37500
O1386       O  0.54849347  0.77177462  0.82481120    -0.58000
O1387       O  0.55205571  0.68494969  0.87398901    -0.56800
C1388       C  0.44139415  0.80677982  0.90617635     0.77000
O1389       O  0.54796436  0.72659042  0.92172880    -0.59100
O1390       O  0.55193908  0.81544911  0.87139126    -0.57600
O1391       O  0.45444245  0.68462082  0.87255644    -0.57600
O1392       O  0.45537354  0.81665850  0.87544949    -0.56700
loop_ 
_geom_bond_atom_site_label_1 
_geom_bond_atom_site_label_2 
_geom_bond_distance 
_geom_bond_site_symmetry_2 
_ccdc_geom_bond_type 
O1            C4   1.266       .  A
O1           Cd6   2.556       .  S
C2           O11   1.267       .  A
C2            O7   1.266       .  A
C2           C56   1.483       .  S
O3            C9   1.263       .  A
O3           Cd6   2.429       .  S
C4           O12   1.264       .  A
C4          C244   1.487       .  S
C5           O10   1.263       .  A
C5            O8   1.266       .  A
C5           C68   1.481       .  S
Cd6          O13   2.550       .  S
Cd6          O12   2.428       .  S
Cd6          O11   2.477       .  S
Cd6           O7   2.500       .  S
Cd6          O10   2.495       .  S
Cd6           O8   2.476       .  S
C9           O13   1.266       .  A
C9          C208   1.484       .  S
O14          C17   1.264       .  A
O14         Cd19   2.500       .  S
C15          O24   1.263       .  A
C15          O20   1.263       .  A
C15         C232   1.480       .  S
O16          C22   1.265       .  A
O16         Cd19   2.510       .  S
C17          O25   1.268       .  A
C17          C32   1.479       .  S
C18          O23   1.265       .  A
C18          O21   1.264       .  A
C18         C220   1.483       .  S
Cd19         O26   2.474       .  S
Cd19         O25   2.461       .  S
Cd19         O24   2.542       .  S
Cd19         O20   2.417       .  S
Cd19         O23   2.548       .  S
Cd19         O21   2.447       .  S
C22          O26   1.266       .  A
C22          C44   1.484       .  S
C27          C28   1.523       .  S
C27          C33   1.501       .  S
C27          C31   1.526       .  S
C27          C79   1.493       .  S
C28          H35   1.088       .  S
C28          C29   1.362       .  D
C29         C176   1.484       .  S
C29          C30   1.553       .  S
C30          C34   1.569       .  S
C30          C32   1.561       .  S
C30          H36   1.110       .  S
C31          H37   1.086       .  S
C31          C32   1.368       .  D
C33          H38   1.077       .  S
C33          C34   1.374       .  D
C34         C116   1.516       .  S
C39          C40   1.520       .  S
C39          C45   1.503       .  S
C39          C43   1.533       .  S
C39          C76   1.503       .  S
C40          H47   1.088       .  S
C40          C41   1.363       .  D
C41         C183   1.483       .  S
C41          C42   1.555       .  S
C42          C46   1.567       .  S
C42          C44   1.557       .  S
C42          H48   1.110       .  S
C43          H49   1.086       .  S
C43          C44   1.372       .  D
C45          H50   1.077       .  S
C45          C46   1.373       .  D
C46         C476   1.515   1_554  S
C51          C52   1.522       .  S
C51          C57   1.505       .  S
C51          C55   1.534       .  S
C51          C83   1.506       .  S
C52          H59   1.088       .  S
C52          C53   1.363       .  D
C53         C189   1.482       .  S
C53          C54   1.550       .  S
C54          C58   1.564       .  S
C54          C56   1.557       .  S
C54          H60   1.110       .  S
C55          H61   1.086       .  S
C55          C56   1.374       .  D
C57          H62   1.077       .  S
C57          C58   1.375       .  D
C58         C140   1.517       .  S
C63          C64   1.525       .  S
C63          C69   1.504       .  S
C63          C67   1.530       .  S
C63          C78   1.499       .  S
C64          H71   1.088       .  S
C64          C65   1.361       .  D
C65         C196   1.480       .  S
C65          C66   1.547       .  S
C66          C70   1.564       .  S
C66          C68   1.558       .  S
C66          H72   1.109       .  S
C67          H73   1.086       .  S
C67          C68   1.372       .  D
C69          H74   1.078       .  S
C69          C70   1.374       .  D
C70         C500   1.513   1_554  S
O75          C78   1.269       .  A
O75        Cd776   2.403   1_655  S
C76          O85   1.265       .  A
C76          O81   1.270       .  A
O77          C83   1.271       .  A
O77         Cd80   2.418   1_645  S
C78          O86   1.264       .  A
C79          O84   1.271       .  A
C79          O82   1.264       .  A
Cd80         O87   2.487   1_465  S
Cd80         O85   2.484   1_565  S
Cd80         O81   2.416   1_565  S
Cd80        O771   2.409   1_455  S
Cd80        O782   2.483   1_455  S
Cd80        O780   2.409       .  S
Cd80        O778   2.453       .  S
O82        Cd776   2.432       .  S
C83          O87   1.266       .  A
O84        Cd776   2.411       .  S
O86        Cd776   2.477   1_655  S
O88          C91   1.264       .  A
O88         Cd93   2.504       .  S
C89          O98   1.264       .  A
C89          O94   1.264       .  A
C89         C314   1.482       .  S
O90          C96   1.265       .  A
O90         Cd93   2.560       .  S
C91          O99   1.269       .  A
C91         C143   1.485       .  S
C92          O97   1.264       .  A
C92          O95   1.267       .  A
C92         C155   1.487       .  S
Cd93        O100   2.428       .  S
Cd93         O99   2.477       .  S
Cd93         O98   2.530       .  S
Cd93         O94   2.435       .  S
Cd93         O97   2.508       .  S
Cd93         O95   2.491       .  S
C96         O100   1.263       .  A
C96         C326   1.486       .  S
O101        C104   1.265       .  A
O101       Cd106   2.506       .  S
C102        O111   1.265       .  A
C102        O107   1.263       .  A
C102        C290   1.484       .  S
O103        C109   1.265       .  A
O103       Cd106   2.541       .  S
C104        O112   1.267       .  A
C104        C131   1.485       .  S
C105        O110   1.264       .  A
C105        O108   1.268       .  A
C105        C119   1.482       .  S
Cd106       O113   2.433       .  S
Cd106       O112   2.479       .  S
Cd106       O111   2.550       .  S
Cd106       O107   2.430       .  S
Cd106       O110   2.489       .  S
Cd106       O108   2.478       .  S
C109        O113   1.263       .  A
C109        C302   1.482       .  S
C114        C115   1.502       .  S
C114        C120   1.520       .  S
C114        C118   1.530       .  S
C114        C163   1.499       .  S
C115        H122   1.077       .  S
C115        C116   1.374       .  D
C116        C117   1.567       .  S
C117        C121   1.551       .  S
C117        C119   1.560       .  S
C117        H123   1.110       .  S
C118        H124   1.086       .  S
C118        C119   1.372       .  D
C120        H125   1.088       .  S
C120        C121   1.362       .  D
C121        C266   1.481       .  S
C126        C127   1.502       .  S
C126        C132   1.523       .  S
C126        C130   1.532       .  S
C126        C170   1.502       .  S
C127        H134   1.076       .  S
C127        C128   1.375       .  D
C128        C129   1.568       .  S
C128        C394   1.517       .  S
C129        C133   1.551       .  S
C129        C131   1.559       .  S
C129        H135   1.110       .  S
C130        H136   1.086       .  S
C130        C131   1.373       .  D
C132        H137   1.088       .  S
C132        C133   1.361       .  D
C133        C263   1.483       .  S
C138        C139   1.501       .  S
C138        C144   1.522       .  S
C138        C142   1.530       .  S
C138        C165   1.499       .  S
C139        H146   1.078       .  S
C139        C140   1.373       .  D
C140        C141   1.571       .  S
C141        C145   1.553       .  S
C141        C143   1.563       .  S
C141        H147   1.110       .  S
C142        H148   1.086       .  S
C142        C143   1.371       .  D
C144        H149   1.088       .  S
C144        C145   1.362       .  D
C145        C276   1.486       .  S
C150        C151   1.502       .  S
C150        C156   1.522       .  S
C150        C154   1.533       .  S
C150        C166   1.499       .  S
C151        H158   1.080       .  S
C151        C152   1.373       .  D
C152        C153   1.565       .  S
C152        C418   1.511       .  S
C153        C157   1.550       .  S
C153        C155   1.560       .  S
C153        H159   1.109       .  S
C154        H160   1.086       .  S
C154        C155   1.373       .  D
C156        H161   1.088       .  S
C156        C157   1.362       .  D
C157        C279   1.482       .  S
O162        C165   1.270       .  A
O162       Cd863   2.408   1_655  S
C163        O172   1.264       .  A
C163        O168   1.272       .  A
O164        C170   1.272       .  A
O164       Cd863   2.423       .  S
C165        O173   1.264       .  A
C166        O171   1.270       .  A
C166        O169   1.264       .  A
Cd167       O172   2.461       .  S
Cd167       O168   2.408       .  S
Cd167       O171   2.401   1_455  S
Cd167       O169   2.478   1_455  S
Cd167       O858   2.412   1_455  S
Cd167       O860   2.412       .  S
Cd167       O870   2.473       .  S
Cd167       O869   2.477   1_455  S
C170        O174   1.264       .  A
O173       Cd863   2.475   1_655  S
O174       Cd863   2.470       .  S
O175        C178   1.265       .  A
O175       Cd876   2.512   1_545  S
C176        O185   1.264       .  A
C176        O181   1.263       .  A
O177        C183   1.265       .  A
O177       Cd876   2.553   1_545  S
C178        O186   1.268       .  A
C178        C230   1.486       .  S
C179        O184   1.264       .  A
C179        O182   1.269       .  A
C179        C218   1.482       .  S
Cd180       O185   2.547       .  S
Cd180       O181   2.442       .  S
Cd180       O184   2.486       .  S
Cd180       O182   2.463       .  S
Cd180       O871   2.491       .  S
Cd180       O873   2.523       .  S
Cd180       O883   2.426       .  S
Cd180       O882   2.481       .  S
C183        O187   1.262   1_545  A
O186       Cd876   2.475   1_545  S
O187       Cd876   2.414       .  S
O188        C191   1.264       .  A
O188       Cd193   2.498       .  S
C189        O198   1.265       .  A
C189        O194   1.262   1_545  A
O190        C196   1.265       .  A
O190       Cd193   2.534       .  S
C191        O199   1.269       .  A
C191        C242   1.485       .  S
C192        O197   1.265       .  A
C192        O195   1.268       .  A
C192        C206   1.488       .  S
Cd193       O200   2.444       .  S
Cd193       O199   2.483       .  S
Cd193       O894   2.534       .  S
Cd193       O890   2.441       .  S
Cd193       O893   2.510       .  S
Cd193       O891   2.492       .  S
O194       Cd889   2.424       .  S
O195       Cd889   2.490   1_545  S
C196        O200   1.263       .  A
O197       Cd889   2.512   1_545  S
O198       Cd889   2.549   1_545  S
C201        C202   1.502       .  S
C201        C207   1.521       .  S
C201        C205   1.534       .  S
C201        C252   1.503       .  S
C202        H209   1.077       .  S
C202        C203   1.375       .  D
C203        C204   1.568       .  S
C203        C679   1.516   1_554  S
C204        C208   1.553       .  S
C204        C206   1.559       .  S
C204        H210   1.110       .  S
C205        H211   1.086       .  S
C205        C206   1.373       .  D
C207        H212   1.088       .  S
C207        C208   1.362       .  D
C213        C214   1.504       .  S
C213        C219   1.523       .  S
C213        C217   1.530       .  S
C213        C250   1.501       .  S
C214        H221   1.078       .  S
C214        C215   1.373       .  D
C215        C216   1.572       .  S
C215        C643   1.519   1_554  S
C216        C220   1.552       .  S
C216        C218   1.559       .  S
C216        H222   1.110       .  S
C217        H223   1.086       .  S
C217        C218   1.371       .  D
C219        H224   1.088       .  S
C219        C220   1.361       .  D
C225        C226   1.502       .  S
C225        C231   1.517       .  S
C225        C229   1.530       .  S
C225        C257   1.498       .  S
C226        H233   1.078       .  S
C226        C227   1.375       .  D
C227        C228   1.568       .  S
C227        C307   1.517       .  S
C228        C232   1.554       .  S
C228        C230   1.562       .  S
C228        H234   1.110       .  S
C229        H235   1.086       .  S
C229        C230   1.373       .  D
C231        H236   1.089       .  S
C231        C232   1.358       .  D
C237        C238   1.506       .  S
C237        C243   1.521       .  S
C237        C241   1.531       .  S
C237        C253   1.502       .  S
C238        H245   1.078       .  S
C238        C239   1.376       .  D
C239        C240   1.569       .  S
C239        C319   1.520       .  S
C240        C244   1.554       .  S
C240        C242   1.562       .  S
C240        H246   1.110       .  S
C241        H247   1.086       .  S
C241        C242   1.371       .  D
C243        H248   1.088       .  S
C243        C244   1.361       .  D
O249        C252   1.270       .  A
O249       Cd254   2.423       .  S
C250        O259   1.265       .  A
C250        O255   1.269       .  A
O251        C257   1.271       .  A
O251       Cd254   2.409       .  S
C252        O260   1.264       .  A
C253        O258   1.270       .  A
C253        O256   1.265       .  A
Cd254       O261   2.469       .  S
Cd254       O260   2.478       .  S
Cd254       O259   2.484       .  S
Cd254       O255   2.418       .  S
Cd254       O258   2.426       .  S
Cd254       O256   2.471       .  S
C257        O261   1.264       .  A
O262        C265   1.264       .  A
O262       Cd267   2.501       .  S
C263        O272   1.264       .  A
C263        O268   1.262   1_545  A
O264        C270   1.265       .  A
O264       Cd963   2.515       .  S
C265        O273   1.269       .  A
C265        C293   1.485       .  S
C266        O271   1.265       .  A
C266        O269   1.262       .  A
Cd267       O273   2.473       .  S
Cd267       O271   2.548       .  S
Cd267       O269   2.423       .  S
Cd267       O960   2.505       .  S
Cd267       O970   2.472       .  S
Cd267       O968   2.534       .  S
Cd267       O964   2.426       .  S
O268       Cd963   2.446   1_565  S
C270        O274   1.268       .  A
C270        C305   1.491       .  S
O272       Cd963   2.549       .  S
O274       Cd963   2.498       .  S
O275        C278   1.264       .  A
O275       Cd280   2.506       .  S
C276        O285   1.263       .  A
C276        O281   1.266       .  A
O277        C283   1.264       .  A
O277       Cd976   2.505       .  S
C278        O286   1.267       .  A
C278        C317   1.482       .  S
C279        O284   1.263       .  A
C279        O282   1.266       .  A
Cd280       O286   2.456       .  S
Cd280       O284   2.396       .  S
Cd280       O282   2.539       .  S
Cd280       O973   2.486       .  S
Cd280       O983   2.495       .  S
Cd280       O981   2.401       .  S
Cd280       O977   2.539       .  S
O281       Cd976   2.559       .  S
C283        O287   1.268       .  A
C283        C329   1.485       .  S
O285       Cd976   2.423       .  S
O287       Cd976   2.478       .  S
C288        C289   1.523       .  S
C288        C294   1.502       .  S
C288        C292   1.530       .  S
C288        C344   1.501       .  S
C289        H296   1.088       .  S
C289        C290   1.362       .  D
C290        C291   1.553       .  S
C291        C295   1.568       .  S
C291        C293   1.561       .  S
C291        H297   1.110       .  S
C292        H298   1.086       .  S
C292        C293   1.372       .  D
C294        H299   1.077       .  S
C294        C295   1.373       .  D
C295        C563   1.515       .  S
C300        C301   1.522       .  S
C300        C306   1.500       .  S
C300        C304   1.537       .  S
C300        C339   1.505       .  S
C301        H308   1.088       .  S
C301        C302   1.362       .  D
C302        C303   1.553       .  S
C303        C307   1.568       .  S
C303        C305   1.559       .  S
C303        H309   1.110       .  S
C304        H310   1.086       .  S
C304        C305   1.375       .  D
C306        H311   1.078       .  S
C306        C307   1.373       .  D
C312        C313   1.524       .  S
C312        C318   1.505       .  S
C312        C316   1.529       .  S
C312        C337   1.503       .  S
C313        H320   1.088       .  S
C313        C314   1.364       .  D
C314        C315   1.552       .  S
C315        C319   1.569       .  S
C315        C317   1.559       .  S
C315        H321   1.110       .  S
C316        H322   1.086       .  S
C316        C317   1.370       .  D
C318        H323   1.078       .  S
C318        C319   1.375       .  D
C324        C325   1.521       .  S
C324        C330   1.501       .  S
C324        C328   1.529       .  S
C324        C340   1.499       .  S
C325        H332   1.088       .  S
C325        C326   1.362       .  D
C326        C327   1.553       .  S
C327        C331   1.569       .  S
C327        C329   1.562       .  S
C327        H333   1.110       .  S
C328        H334   1.086       .  S
C328        C329   1.371       .  D
C330        H335   1.077       .  S
C330        C331   1.374       .  D
C331        C551   1.514       .  S
O336        C339   1.271       .  A
O336       Cd341   2.422       .  S
C337        O346   1.266       .  A
C337        O342   1.271       .  A
O338        C344   1.269       .  A
O338       Cd341   2.408       .  S
C339        O347   1.264       .  A
C340        O345   1.270       .  A
C340        O343   1.265       .  A
Cd341       O348   2.482       .  S
Cd341       O347   2.480       .  S
Cd341       O346   2.478       .  S
Cd341       O342   2.430       .  S
Cd341       O345   2.414       .  S
Cd341       O343   2.471       .  S
C344        O348   1.265       .  A
O349        C352   1.266       .  A
O349       Cd354   2.541       .  S
C350        O359   1.269       .  A
C350        O355   1.264       .  A
C350        C404   1.488       .  S
O351        C357   1.263       .  A
O351       Cd354   2.424       .  S
C352        O360   1.262       .  A
C352        C592   1.481       .  S
C353        O358   1.264       .  A
C353        O356   1.268       .  A
C353        C416   1.490       .  S
Cd354       O361   2.545       .  S
Cd354       O360   2.422       .  S
Cd354       O359   2.482       .  S
Cd354       O355   2.508       .  S
Cd354       O358   2.523       .  S
Cd354       O356   2.494       .  S
C357        O361   1.265       .  A
C357        C556   1.482       .  S
O362        C365   1.264       .  A
O362       Cd367   2.491       .  S
C363        O372   1.265       .  A
C363        O368   1.262       .  A
C363        C580   1.480       .  S
O364        C370   1.266       .  A
O364       Cd367   2.503       .  S
C365        O373   1.268       .  A
C365        C380   1.481       .  S
C366        O371   1.265       .  A
C366        O369   1.263       .  A
C366        C568   1.483       .  S
Cd367       O374   2.467       .  S
Cd367       O373   2.473       .  S
Cd367       O372   2.543       .  S
Cd367       O368   2.419       .  S
Cd367       O371   2.543       .  S
Cd367       O369   2.434       .  S
C370        O374   1.267       .  A
C370        C392   1.484       .  S
C375        C376   1.523       .  S
C375        C381   1.501       .  S
C375        C379   1.529       .  S
C375        C427   1.497       .  S
C376        H383   1.088       .  S
C376        C377   1.361       .  D
C377        C524   1.480       .  S
C377        C378   1.548       .  S
C378        C382   1.565       .  S
C378        C380   1.561       .  S
C378        H384   1.110       .  S
C379        H385   1.086       .  S
C379        C380   1.372       .  D
C381        H386   1.077       .  S
C381        C382   1.374       .  D
C382        C464   1.515       .  S
C387        C388   1.519       .  S
C387        C393   1.502       .  S
C387        C391   1.534       .  S
C387        C424   1.503       .  S
C388        H395   1.088       .  S
C388        C389   1.360       .  D
C389        C531   1.481       .  S
C389        C390   1.554       .  S
C390        C394   1.567       .  S
C390        C392   1.557       .  S
C390        H396   1.110       .  S
C391        H397   1.086       .  S
C391        C392   1.376       .  D
C393        H398   1.076       .  S
C393        C394   1.373       .  D
C399        C400   1.520       .  S
C399        C405   1.503       .  S
C399        C403   1.530       .  S
C399        C431   1.502       .  S
C400        H407   1.088       .  S
C400        C401   1.361       .  D
C401        C537   1.486       .  S
C401        C402   1.557       .  S
C402        C406   1.572       .  S
C402        C404   1.564       .  S
C402        H408   1.110       .  S
C403        H409   1.086       .  S
C403        C404   1.372       .  D
C405        H410   1.076       .  S
C405        C406   1.373       .  D
C406        C488   1.520       .  S
C411        C412   1.523       .  S
C411        C417   1.502       .  S
C411        C415   1.532       .  S
C411        C426   1.498       .  S
C412        H419   1.089       .  S
C412        C413   1.362       .  D
C413        C544   1.478       .  S
C413        C414   1.550       .  S
C414        C418   1.566       .  S
C414        C416   1.559       .  S
C414        H420   1.109       .  S
C415        H421   1.086       .  S
C415        C416   1.371       .  D
C417        H422   1.080       .  S
C417        C418   1.374       .  D
O423        C426   1.271       .  A
O423      Cd1124   2.410   1_655  S
C424        O433   1.264       .  A
C424        O429   1.269       .  A
O425        C431   1.273       .  A
O425       Cd428   2.430   1_645  S
C426        O434   1.265       .  A
C427        O432   1.271       .  A
C427        O430   1.264       .  A
Cd428      O1119   2.424   1_455  S
Cd428       O435   2.457   1_465  S
Cd428      O1130   2.503   1_455  S
Cd428       O433   2.505   1_565  S
Cd428       O429   2.394   1_565  S
Cd428      O1128   2.429       .  S
Cd428      O1126   2.476       .  S
O430      Cd1124   2.465       .  S
C431        O435   1.264       .  A
O432      Cd1124   2.403       .  S
O434      Cd1124   2.454   1_655  S
O436        C439   1.265       .  A
O436       Cd441   2.503       .  S
C437        O446   1.264       .  A
C437        O442   1.264       .  A
C437        C662   1.474       .  S
O438        C444   1.265       .  A
O438       Cd441   2.561       .  S
C439        O447   1.268       .  A
C439        C491   1.482       .  S
C440        O445   1.264       .  A
C440        O443   1.267       .  A
C440        C503   1.485       .  S
Cd441       O448   2.431       .  S
Cd441       O447   2.461       .  S
Cd441       O446   2.512       .  S
Cd441       O442   2.427       .  S
Cd441       O445   2.506       .  S
Cd441       O443   2.477       .  S
C444        O448   1.263       .  A
C444        C674   1.487       .  S
O449        C452   1.265       .  A
O449       Cd454   2.501       .  S
C450        O459   1.265       .  A
C450        O455   1.263       .  A
C450        C638   1.484       .  S
O451        C457   1.264       .  A
O451       Cd454   2.516       .  S
C452        O460   1.267       .  A
C452        C479   1.484       .  S
C453        O458   1.263       .  A
C453        O456   1.268       .  A
C453        C467   1.482       .  S
Cd454       O461   2.437       .  S
Cd454       O460   2.470       .  S
Cd454       O459   2.556       .  S
Cd454       O455   2.439       .  S
Cd454       O458   2.485       .  S
Cd454       O456   2.478       .  S
C457        O461   1.262       .  A
C457        C650   1.474       .  S
C462        C463   1.505       .  S
C462        C468   1.520       .  S
C462        C466   1.530       .  S
C462        C511   1.504       .  S
C463        H470   1.074       .  S
C463        C464   1.372       .  D
C464        C465   1.566       .  S
C465        C469   1.551       .  S
C465        C467   1.559       .  S
C465        H471   1.110       .  S
C466        H472   1.086       .  S
C466        C467   1.373       .  D
C468        H473   1.087       .  S
C468        C469   1.361       .  D
C469        C614   1.478       .  S
C474        C475   1.505       .  S
C474        C480   1.525       .  S
C474        C478   1.531       .  S
C474        C518   1.503       .  S
C475        H482   1.078       .  S
C475        C476   1.375       .  D
C476        C477   1.564       .  S
C477        C481   1.549       .  S
C477        C479   1.559       .  S
C477        H483   1.110       .  S
C478        H484   1.086       .  S
C478        C479   1.372       .  D
C480        H485   1.088       .  S
C480        C481   1.361       .  D
C481        C611   1.478       .  S
C486        C487   1.505       .  S
C486        C492   1.520       .  S
C486        C490   1.529       .  S
C486        C513   1.504       .  S
C487        H494   1.077       .  S
C487        C488   1.378       .  D
C488        C489   1.566       .  S
C489        C493   1.552       .  S
C489        C491   1.561       .  S
C489        H495   1.110       .  S
C490        H496   1.086       .  S
C490        C491   1.370       .  D
C492        H497   1.088       .  S
C492        C493   1.362       .  D
C493        C624   1.478       .  S
C498        C499   1.502       .  S
C498        C504   1.521       .  S
C498        C502   1.531       .  S
C498        C514   1.499       .  S
C499        H506   1.078       .  S
C499        C500   1.373       .  D
C500        C501   1.566       .  S
C501        C505   1.553       .  S
C501        C503   1.559       .  S
C501        H507   1.109       .  S
C502        H508   1.086       .  S
C502        C503   1.372       .  D
C504        H509   1.088       .  S
C504        C505   1.361       .  D
C505        C627   1.481       .  S
O510        C513   1.270       .  A
O510      Cd1211   2.423   1_655  S
C511        O520   1.264       .  A
C511        O516   1.271       .  A
O512        C518   1.270       .  A
O512      Cd1211   2.422       .  S
C513        O521   1.265       .  A
C514        O519   1.268       .  A
C514        O517   1.263       .  A
Cd515      O1206   2.408   1_455  S
Cd515      O1208   2.390       .  S
Cd515      O1218   2.474       .  S
Cd515      O1217   2.459   1_455  S
Cd515       O520   2.461       .  S
Cd515       O516   2.425       .  S
Cd515       O519   2.405   1_455  S
Cd515       O517   2.485   1_455  S
C518        O522   1.265       .  A
O521      Cd1211   2.480   1_655  S
O522      Cd1211   2.481       .  S
O523        C526   1.265       .  A
O523      Cd1224   2.488   1_545  S
C524        O533   1.265       .  A
C524        O529   1.263       .  A
O525        C531   1.265       .  A
O525      Cd1224   2.541   1_545  S
C526        O534   1.266       .  A
C526        C578   1.480       .  S
C527        O532   1.264       .  A
C527        O530   1.268       .  A
C527        C566   1.477       .  S
Cd528      O1219   2.491       .  S
Cd528      O1221   2.523       .  S
Cd528      O1231   2.421       .  S
Cd528      O1230   2.462       .  S
Cd528       O533   2.534       .  S
Cd528       O529   2.424       .  S
Cd528       O532   2.479       .  S
Cd528       O530   2.465       .  S
C531        O535   1.263   1_545  A
O534      Cd1224   2.465   1_545  S
O535      Cd1224   2.427       .  S
O536        C539   1.265       .  A
O536       Cd541   2.518       .  S
C537        O546   1.265       .  A
C537        O542   1.264   1_545  A
O538        C544   1.264       .  A
O538       Cd541   2.523       .  S
C539        O547   1.268       .  A
C539        C590   1.487       .  S
C540        O545   1.263       .  A
C540        O543   1.267       .  A
C540        C554   1.480       .  S
Cd541       O548   2.443       .  S
Cd541       O547   2.477       .  S
Cd541      O1242   2.537       .  S
Cd541      O1238   2.433       .  S
Cd541      O1241   2.486       .  S
Cd541      O1239   2.488       .  S
O542      Cd1237   2.429       .  S
O543      Cd1237   2.469   1_545  S
C544        O548   1.263       .  A
O545      Cd1237   2.489   1_545  S
O546      Cd1237   2.554   1_545  S
C549        C550   1.504       .  S
C549        C555   1.519       .  S
C549        C553   1.529       .  S
C549        C600   1.497       .  S
C550        H557   1.077       .  S
C550        C551   1.375       .  D
C551        C552   1.563       .  S
C552        C556   1.552       .  S
C552        C554   1.559       .  S
C552        H558   1.109       .  S
C553        H559   1.086       .  S
C553        C554   1.373       .  D
C555        H560   1.088       .  S
C555        C556   1.360       .  D
C561        C562   1.506       .  S
C561        C567   1.525       .  S
C561        C565   1.528       .  S
C561        C598   1.501       .  S
C562        H569   1.077       .  S
C562        C563   1.375       .  D
C563        C564   1.563       .  S
C564        C568   1.549       .  S
C564        C566   1.558       .  S
C564        H570   1.110       .  S
C565        H571   1.086       .  S
C565        C566   1.370       .  D
C567        H572   1.087       .  S
C567        C568   1.363       .  D
C573        C574   1.503       .  S
C573        C579   1.519       .  S
C573        C577   1.532       .  S
C573        C605   1.502       .  S
C574        H581   1.075       .  S
C574        C575   1.372       .  D
C575        C576   1.563       .  S
C575        C655   1.512       .  S
C576        C580   1.552       .  S
C576        C578   1.557       .  S
C576        H582   1.110       .  S
C577        H583   1.086       .  S
C577        C578   1.375       .  D
C579        H584   1.088       .  S
C579        C580   1.360       .  D
C585        C586   1.503       .  S
C585        C591   1.523       .  S
C585        C589   1.533       .  S
C585        C601   1.506       .  S
C586        H593   1.077       .  S
C586        C587   1.373       .  D
C587        C588   1.567       .  S
C587        C667   1.514       .  S
C588        C592   1.550       .  S
C588        C590   1.559       .  S
C588        H594   1.110       .  S
C589        H595   1.086       .  S
C589        C590   1.373       .  D
C591        H596   1.088       .  S
C591        C592   1.364       .  D
O597        C600   1.270       .  A
O597       Cd602   2.387       .  S
C598        O607   1.266       .  A
C598        O603   1.270       .  A
O599        C605   1.272       .  A
O599       Cd602   2.401       .  S
C600        O608   1.265       .  A
C601        O606   1.271       .  A
C601        O604   1.265       .  A
Cd602       O609   2.484       .  S
Cd602       O608   2.476       .  S
Cd602       O607   2.476       .  S
Cd602       O603   2.410       .  S
Cd602       O606   2.434       .  S
Cd602       O604   2.482       .  S
C605        O609   1.265       .  A
O610        C613   1.264       .  A
O610       Cd615   2.478       .  S
C611        O620   1.264       .  A
C611        O616   1.264   1_545  A
O612        C618   1.265       .  A
O612      Cd1311   2.500       .  S
C613        O621   1.268       .  A
C613        C641   1.478       .  S
C614        O619   1.265       .  A
C614        O617   1.264       .  A
Cd615      O1308   2.505       .  S
Cd615      O1318   2.464       .  S
Cd615       O621   2.466       .  S
Cd615      O1316   2.549       .  S
Cd615      O1312   2.414       .  S
Cd615       O619   2.535       .  S
Cd615       O617   2.424       .  S
O616      Cd1311   2.444   1_565  S
C618        O622   1.267       .  A
C618        C653   1.482       .  S
O620      Cd1311   2.523       .  S
O622      Cd1311   2.470       .  S
O623        C626   1.265       .  A
O623       Cd628   2.490       .  S
C624        O633   1.264   1_545  A
C624        O629   1.265       .  A
O625        C631   1.264       .  A
O625      Cd1324   2.473   1_545  S
C626        O634   1.267       .  A
C626        C665   1.482       .  S
C627        O632   1.264       .  A
C627        O630   1.265       .  A
Cd628      O1321   2.487       .  S
Cd628      O1331   2.476       .  S
Cd628       O634   2.468       .  S
Cd628      O1329   2.426       .  S
Cd628      O1325   2.541       .  S
Cd628       O632   2.424       .  S
Cd628       O630   2.538       .  S
O629      Cd1324   2.534   1_545  S
C631        O635   1.267       .  A
C631        C677   1.477       .  S
O633      Cd1324   2.421       .  S
O635      Cd1324   2.464   1_545  S
C636        C637   1.523       .  S
C636        C642   1.509       .  S
C636        C640   1.529       .  S
C636        C692   1.502       .  S
C637        H644   1.088       .  S
C637        C638   1.362       .  D
C638        C639   1.550       .  S
C639        C643   1.565       .  S
C639        C641   1.557       .  S
C639        H645   1.110       .  S
C640        H646   1.086       .  S
C640        C641   1.371       .  D
C642        H647   1.078       .  S
C642        C643   1.377       .  D
C648        C649   1.523       .  S
C648        C654   1.505       .  S
C648        C652   1.529       .  S
C648        C687   1.504       .  S
C649        H656   1.088       .  S
C649        C650   1.363       .  D
C650        C651   1.548       .  S
C651        C655   1.562       .  S
C651        C653   1.558       .  S
C651        H657   1.110       .  S
C652        H658   1.086       .  S
C652        C653   1.371       .  D
C654        H659   1.076       .  S
C654        C655   1.374       .  D
C660        C661   1.523       .  S
C660        C666   1.505       .  S
C660        C664   1.532       .  S
C660        C685   1.504       .  S
C661        H668   1.088       .  S
C661        C662   1.361       .  D
C662        C663   1.547       .  S
C663        C667   1.561       .  S
C663        C665   1.557       .  S
C663        H669   1.110       .  S
C664        H670   1.086       .  S
C664        C665   1.373       .  D
C666        H671   1.077       .  S
C666        C667   1.374       .  D
C672        C673   1.524       .  S
C672        C678   1.503       .  S
C672        C676   1.529       .  S
C672        C688   1.498       .  S
C673        H680   1.088       .  S
C673        C674   1.361       .  D
C674        C675   1.550       .  S
C675        C679   1.567       .  S
C675        C677   1.558       .  S
C675        H681   1.110       .  S
C676        H682   1.086       .  S
C676        C677   1.372       .  D
C678        H683   1.077       .  S
C678        C679   1.374       .  D
O684        C687   1.272       .  A
O684       Cd689   2.444       .  S
C685        O694   1.264       .  A
C685        O690   1.270       .  A
O686        C692   1.271       .  A
O686       Cd689   2.409       .  S
C687        O695   1.264       .  A
C688        O693   1.269       .  A
C688        O691   1.263       .  A
Cd689       O696   2.468       .  S
Cd689       O695   2.458       .  S
Cd689       O694   2.494       .  S
Cd689       O690   2.415       .  S
Cd689       O693   2.405       .  S
Cd689       O691   2.480       .  S
C692        O696   1.268       .  A
O697        C700   1.265       .  A
O697       Cd702   2.549       .  S
C698        O707   1.267       .  A
C698        O703   1.264       .  A
C698        C752   1.479       .  S
O699        C705   1.263       .  A
O699       Cd702   2.436       .  S
C700        O708   1.263       .  A
C700        C940   1.484       .  S
C701        O706   1.263       .  A
C701        O704   1.268       .  A
C701        C764   1.483       .  S
Cd702       O709   2.541       .  S
Cd702       O708   2.429       .  S
Cd702       O707   2.481       .  S
Cd702       O703   2.473       .  S
Cd702       O706   2.483       .  S
Cd702       O704   2.479       .  S
C705        O709   1.265       .  A
C705        C904   1.481       .  S
O710        C713   1.263       .  A
O710       Cd715   2.476       .  S
C711        O720   1.265       .  A
C711        O716   1.263       .  A
C711        C928   1.474       .  S
O712        C718   1.265       .  A
O712       Cd715   2.493       .  S
C713        O721   1.269       .  A
C713        C728   1.478       .  S
C714        O719   1.265       .  A
C714        O717   1.264       .  A
C714        C916   1.484       .  S
Cd715       O722   2.466       .  S
Cd715       O721   2.462       .  S
Cd715       O720   2.525       .  S
Cd715       O716   2.407       .  S
Cd715       O719   2.535       .  S
Cd715       O717   2.443       .  S
C718        O722   1.266       .  A
C718        C740   1.480       .  S
C723        C724   1.526       .  S
C723        C729   1.504       .  S
C723        C727   1.525       .  S
C723        C775   1.496       .  S
C724        H731   1.088       .  S
C724        C725   1.363       .  D
C725        C872   1.484       .  S
C725        C726   1.548       .  S
C726        C730   1.569       .  S
C726        C728   1.563       .  S
C726        H732   1.110       .  S
C727        H733   1.086       .  S
C727        C728   1.369       .  D
C729        H734   1.078       .  S
C729        C730   1.371       .  D
C730        C812   1.516       .  S
C735        C736   1.520       .  S
C735        C741   1.506       .  S
C735        C739   1.533       .  S
C735        C772   1.503       .  S
C736        H743   1.088       .  S
C736        C737   1.362       .  D
C737        C879   1.473       .  S
C737        C738   1.549       .  S
C738        C742   1.562       .  S
C738        C740   1.553       .  S
C738        H744   1.110       .  S
C739        H745   1.086       .  S
C739        C740   1.373       .  D
C741        H746   1.078       .  S
C741        C742   1.375       .  D
C742       C1172   1.513   1_554  S
C747        C748   1.524       .  S
C747        C753   1.501       .  S
C747        C751   1.536       .  S
C747        C779   1.500       .  S
C748        H755   1.088       .  S
C748        C749   1.363       .  D
C749        C885   1.480       .  S
C749        C750   1.550       .  S
C750        C754   1.562       .  S
C750        C752   1.551       .  S
C750        H756   1.110       .  S
C751        H757   1.086       .  S
C751        C752   1.373       .  D
C753        H758   1.078       .  S
C753        C754   1.372       .  D
C754        C836   1.510       .  S
C759        C760   1.526       .  S
C759        C765   1.504       .  S
C759        C763   1.529       .  S
C759        C774   1.502       .  S
C760        H767   1.088       .  S
C760        C761   1.362       .  D
C761        C892   1.482       .  S
C761        C762   1.547       .  S
C762        C766   1.567       .  S
C762        C764   1.563       .  S
C762        H768   1.110       .  S
C763        H769   1.086       .  S
C763        C764   1.372       .  D
C765        H770   1.078       .  S
C765        C766   1.374       .  D
C766       C1196   1.519   1_554  S
O771        C774   1.271       .  A
C772        O781   1.266       .  A
C772        O777   1.269       .  A
O773        C779   1.271       .  A
O773       Cd776   2.407   1_655  S
C774        O782   1.265       .  A
C775        O780   1.272       .  A
C775        O778   1.265       .  A
Cd776       O783   2.467   1_455  S
Cd776       O781   2.497       .  S
Cd776       O777   2.403       .  S
C779        O783   1.265       .  A
O784        C787   1.265       .  A
O784       Cd789   2.500       .  S
C785        O794   1.265       .  A
C785        O790   1.262       .  A
C785       C1010   1.480       .  S
O786        C792   1.265       .  A
O786       Cd789   2.542       .  S
C787        O795   1.267       .  A
C787        C839   1.481       .  S
C788        O793   1.264       .  A
C788        O791   1.268       .  A
C788        C851   1.485       .  S
Cd789       O796   2.423       .  S
Cd789       O795   2.459       .  S
Cd789       O794   2.544       .  S
Cd789       O790   2.405       .  S
Cd789       O793   2.502       .  S
Cd789       O791   2.477       .  S
C792        O796   1.263       .  A
C792       C1022   1.482       .  S
O797        C800   1.263       .  A
O797       Cd802   2.489       .  S
C798        O807   1.266       .  A
C798        O803   1.262       .  A
C798        C986   1.481       .  S
O799        C805   1.265       .  A
O799       Cd802   2.528       .  S
C800        O808   1.267       .  A
C800        C827   1.479       .  S
C801        O806   1.265       .  A
C801        O804   1.268       .  A
C801        C815   1.478       .  S
Cd802       O809   2.427       .  S
Cd802       O808   2.462       .  S
Cd802       O807   2.551       .  S
Cd802       O803   2.418       .  S
Cd802       O806   2.478       .  S
Cd802       O804   2.464       .  S
C805        O809   1.264       .  A
C805        C998   1.479       .  S
C810        C811   1.506       .  S
C810        C816   1.522       .  S
C810        C814   1.534       .  S
C810        C859   1.506       .  S
C811        H818   1.078       .  S
C811        C812   1.377       .  D
C812        C813   1.563       .  S
C813        C817   1.552       .  S
C813        C815   1.553       .  S
C813        H819   1.110       .  S
C814        H820   1.086       .  S
C814        C815   1.372       .  D
C816        H821   1.088       .  S
C816        C817   1.362       .  D
C817        C962   1.481       .  S
C822        C823   1.503       .  S
C822        C828   1.525       .  S
C822        C826   1.527       .  S
C822        C866   1.500       .  S
C823        H830   1.078       .  S
C823        C824   1.374       .  D
C824        C825   1.564       .  S
C824       C1090   1.511       .  S
C825        C829   1.546       .  S
C825        C827   1.559       .  S
C825        H831   1.110       .  S
C826        H832   1.086       .  S
C826        C827   1.371       .  D
C828        H833   1.088       .  S
C828        C829   1.363       .  D
C829        C959   1.479       .  S
C834        C835   1.502       .  S
C834        C840   1.526       .  S
C834        C838   1.528       .  S
C834        C861   1.500       .  S
C835        H842   1.079       .  S
C835        C836   1.373       .  D
C836        C837   1.564       .  S
C837        C841   1.547       .  S
C837        C839   1.560       .  S
C837        H843   1.110       .  S
C838        H844   1.086       .  S
C838        C839   1.372       .  D
C840        H845   1.088       .  S
C840        C841   1.364       .  D
C841        C972   1.482       .  S
C846        C847   1.504       .  S
C846        C852   1.520       .  S
C846        C850   1.533       .  S
C846        C862   1.505       .  S
C847        H854   1.078       .  S
C847        C848   1.374       .  D
C848        C849   1.568       .  S
C848       C1114   1.520       .  S
C849        C853   1.552       .  S
C849        C851   1.560       .  S
C849        H855   1.110       .  S
C850        H856   1.086       .  S
C850        C851   1.373       .  D
C852        H857   1.088       .  S
C852        C853   1.361       .  D
C853        C975   1.480       .  S
O858        C861   1.270       .  A
C859        O868   1.265       .  A
C859        O864   1.269       .  A
O860        C866   1.270       .  A
C861        O869   1.265       .  A
C862        O867   1.271       .  A
C862        O865   1.265       .  A
Cd863       O868   2.491   1_545  S
Cd863       O864   2.430   1_545  S
Cd863       O867   2.426   1_445  S
Cd863       O865   2.490   1_445  S
C866        O870   1.266       .  A
O871        C874   1.264       .  A
C872        O881   1.266       .  A
C872        O877   1.263       .  A
O873        C879   1.264       .  A
C874        O882   1.268       .  A
C874        C926   1.483       .  S
C875        O880   1.263       .  A
C875        O878   1.268       .  A
C875        C914   1.479       .  S
Cd876       O881   2.550       .  S
Cd876       O877   2.425       .  S
Cd876       O880   2.490       .  S
Cd876       O878   2.463       .  S
C879        O883   1.262       .  A
O884        C887   1.265       .  A
O884       Cd889   2.505       .  S
C885        O894   1.265       .  A
C885        O890   1.262       .  A
O886        C892   1.265       .  A
O886       Cd889   2.541       .  S
C887        O895   1.268       .  A
C887        C938   1.484       .  S
C888        O893   1.265       .  A
C888        O891   1.268       .  A
C888        C902   1.486       .  S
Cd889       O896   2.439       .  S
Cd889       O895   2.476       .  S
C892        O896   1.263       .  A
C897        C898   1.501       .  S
C897        C903   1.521       .  S
C897        C901   1.535       .  S
C897        C948   1.501       .  S
C898        H905   1.078       .  S
C898        C899   1.375       .  D
C899        C900   1.566       .  S
C899       C1375   1.514   1_554  S
C900        C904   1.554       .  S
C900        C902   1.555       .  S
C900        H906   1.110       .  S
C901        H907   1.086       .  S
C901        C902   1.372       .  D
C903        H908   1.088       .  S
C903        C904   1.362       .  D
C909        C910   1.502       .  S
C909        C915   1.526       .  S
C909        C913   1.525       .  S
C909        C946   1.493       .  S
C910        H917   1.077       .  S
C910        C911   1.373       .  D
C911        C912   1.568       .  S
C911       C1339   1.514   1_554  S
C912        C916   1.551       .  S
C912        C914   1.561       .  S
C912        H918   1.110       .  S
C913        H919   1.086       .  S
C913        C914   1.368       .  D
C915        H920   1.088       .  S
C915        C916   1.362       .  D
C921        C922   1.504       .  S
C921        C927   1.519       .  S
C921        C925   1.532       .  S
C921        C953   1.502       .  S
C922        H929   1.078       .  S
C922        C923   1.375       .  D
C923        C924   1.563       .  S
C923       C1003   1.515       .  S
C924        C928   1.550       .  S
C924        C926   1.557       .  S
C924        H930   1.110       .  S
C925        H931   1.086       .  S
C925        C926   1.373       .  D
C927        H932   1.088       .  S
C927        C928   1.361       .  D
C933        C934   1.502       .  S
C933        C939   1.521       .  S
C933        C937   1.531       .  S
C933        C949   1.497       .  S
C934        H941   1.077       .  S
C934        C935   1.374       .  D
C935        C936   1.565       .  S
C935       C1015   1.509       .  S
C936        C940   1.553       .  S
C936        C938   1.557       .  S
C936        H942   1.109       .  S
C937        H943   1.086       .  S
C937        C938   1.371       .  D
C939        H944   1.088       .  S
C939        C940   1.363       .  D
O945        C948   1.270       .  A
O945       Cd950   2.409       .  S
C946        O955   1.264       .  A
C946        O951   1.270       .  A
O947        C953   1.269       .  A
O947       Cd950   2.405       .  S
C948        O956   1.265       .  A
C949        O954   1.270       .  A
C949        O952   1.264       .  A
Cd950       O957   2.485       .  S
Cd950       O956   2.464       .  S
Cd950       O955   2.445       .  S
Cd950       O951   2.404       .  S
Cd950       O954   2.412       .  S
Cd950       O952   2.459       .  S
C953        O957   1.266       .  A
O958        C961   1.264       .  A
O958       Cd963   2.500   1_565  S
C959        O968   1.265       .  A
C959        O964   1.262       .  A
O960        C966   1.264       .  A
C961        O969   1.269       .  A
C961        C989   1.485       .  S
C962        O967   1.264       .  A
C962        O965   1.263       .  A
Cd963       O969   2.482   1_545  S
Cd963       O967   2.546   1_545  S
Cd963       O965   2.450   1_545  S
C966        O970   1.268       .  A
C966       C1001   1.485       .  S
O971        C974   1.265       .  A
O971       Cd976   2.499   1_565  S
C972        O981   1.263       .  A
C972        O977   1.268       .  A
O973        C979   1.262       .  A
C974        O982   1.267       .  A
C974       C1013   1.480       .  S
C975        O980   1.264   1_565  A
C975        O978   1.265       .  A
Cd976       O982   2.462   1_545  S
Cd976       O980   2.412       .  S
Cd976       O978   2.532   1_545  S
C979        O983   1.268       .  A
C979       C1025   1.483       .  S
C984        C985   1.521       .  S
C984        C990   1.503       .  S
C984        C988   1.531       .  S
C984       C1040   1.501       .  S
C985        H992   1.088       .  S
C985        C986   1.361       .  D
C986        C987   1.549       .  S
C987        C991   1.569       .  S
C987        C989   1.561       .  S
C987        H993   1.110       .  S
C988        H994   1.086       .  S
C988        C989   1.372       .  D
C990        H995   1.077       .  S
C990        C991   1.376       .  D
C991       C1259   1.518       .  S
C996        C997   1.522       .  S
C996       C1002   1.503       .  S
C996       C1000   1.529       .  S
C996       C1035   1.498       .  S
C997       H1004   1.088       .  S
C997        C998   1.361       .  D
C998        C999   1.549       .  S
C999       C1003   1.568       .  S
C999       C1001   1.562       .  S
C999       H1005   1.110       .  S
C1000      H1006   1.086       .  S
C1000      C1001   1.372       .  D
C1002      H1007   1.079       .  S
C1002      C1003   1.373       .  D
C1008      C1009   1.522       .  S
C1008      C1014   1.505       .  S
C1008      C1012   1.528       .  S
C1008      C1033   1.498       .  S
C1009      H1016   1.088       .  S
C1009      C1010   1.362       .  D
C1010      C1011   1.549       .  S
C1011      C1015   1.562       .  S
C1011      C1013   1.558       .  S
C1011      H1017   1.109       .  S
C1012      H1018   1.086       .  S
C1012      C1013   1.370       .  D
C1014      H1019   1.077       .  S
C1014      C1015   1.375       .  D
C1020      C1021   1.521       .  S
C1020      C1026   1.502       .  S
C1020      C1024   1.532       .  S
C1020      C1036   1.497       .  S
C1021      H1028   1.089       .  S
C1021      C1022   1.361       .  D
C1022      C1023   1.551       .  S
C1023      C1027   1.571       .  S
C1023      C1025   1.559       .  S
C1023      H1029   1.110       .  S
C1024      H1030   1.086       .  S
C1024      C1025   1.372       .  D
C1026      H1031   1.076       .  S
C1026      C1027   1.373       .  D
C1027      C1247   1.520       .  S
O1032      C1035   1.270       .  A
O1032     Cd1037   2.407       .  S
C1033      O1042   1.264       .  A
C1033      O1038   1.270       .  A
O1034      C1040   1.270       .  A
O1034     Cd1037   2.421       .  S
C1035      O1043   1.265       .  A
C1036      O1041   1.270       .  A
C1036      O1039   1.264       .  A
Cd1037     O1044   2.474       .  S
Cd1037     O1043   2.475       .  S
Cd1037     O1042   2.465       .  S
Cd1037     O1038   2.414       .  S
Cd1037     O1041   2.400       .  S
Cd1037     O1039   2.471       .  S
C1040      O1044   1.264       .  A
O1045      C1048   1.265       .  A
O1045     Cd1050   2.543       .  S
C1046      O1055   1.266       .  A
C1046      O1051   1.264       .  A
C1046      C1100   1.476       .  S
O1047      C1053   1.263       .  A
O1047     Cd1050   2.431       .  S
C1048      O1056   1.264       .  A
C1048      C1288   1.482       .  S
C1049      O1054   1.264       .  A
C1049      O1052   1.268       .  A
C1049      C1112   1.483       .  S
Cd1050     O1057   2.530       .  S
Cd1050     O1056   2.436       .  S
Cd1050     O1055   2.460       .  S
Cd1050     O1051   2.483       .  S
Cd1050     O1054   2.496       .  S
Cd1050     O1052   2.462       .  S
C1053      O1057   1.265       .  A
C1053      C1252   1.478       .  S
O1058      C1061   1.264       .  A
O1058     Cd1063   2.472       .  S
C1059      O1068   1.264       .  A
C1059      O1064   1.262       .  A
C1059      C1276   1.478       .  S
O1060      C1066   1.263       .  A
O1060     Cd1063   2.486       .  S
C1061      O1069   1.268       .  A
C1061      C1076   1.475       .  S
C1062      O1067   1.266       .  A
C1062      O1065   1.264       .  A
C1062      C1264   1.478       .  S
Cd1063     O1070   2.458       .  S
Cd1063     O1069   2.452       .  S
Cd1063     O1068   2.528       .  S
Cd1063     O1064   2.410       .  S
Cd1063     O1067   2.521       .  S
Cd1063     O1065   2.431       .  S
C1066      O1070   1.266       .  A
C1066      C1088   1.476       .  S
C1071      C1072   1.526       .  S
C1071      C1077   1.507       .  S
C1071      C1075   1.527       .  S
C1071      C1123   1.506       .  S
C1072      H1079   1.087       .  S
C1072      C1073   1.364       .  D
C1073      C1220   1.479       .  S
C1073      C1074   1.546       .  S
C1074      C1078   1.562       .  S
C1074      C1076   1.559       .  S
C1074      H1080   1.110       .  S
C1075      H1081   1.086       .  S
C1075      C1076   1.370       .  D
C1077      H1082   1.078       .  S
C1077      C1078   1.374       .  D
C1078      C1160   1.516       .  S
C1083      C1084   1.521       .  S
C1083      C1089   1.501       .  S
C1083      C1087   1.530       .  S
C1083      C1120   1.495       .  S
C1084      H1091   1.088       .  S
C1084      C1085   1.362       .  D
C1085      C1227   1.477       .  S
C1085      C1086   1.552       .  S
C1086      C1090   1.564       .  S
C1086      C1088   1.554       .  S
C1086      H1092   1.110       .  S
C1087      H1093   1.086       .  S
C1087      C1088   1.369       .  D
C1089      H1094   1.078       .  S
C1089      C1090   1.373       .  D
C1095      C1096   1.523       .  S
C1095      C1101   1.502       .  S
C1095      C1099   1.532       .  S
C1095      C1127   1.497       .  S
C1096      H1103   1.088       .  S
C1096      C1097   1.361       .  D
C1097      C1233   1.480       .  S
C1097      C1098   1.550       .  S
C1098      C1102   1.564       .  S
C1098      C1100   1.554       .  S
C1098      H1104   1.110       .  S
C1099      H1105   1.086       .  S
C1099      C1100   1.373       .  D
C1101      H1106   1.077       .  S
C1101      C1102   1.373       .  D
C1102      C1184   1.513       .  S
C1107      C1108   1.522       .  S
C1107      C1113   1.506       .  S
C1107      C1111   1.528       .  S
C1107      C1122   1.508       .  S
C1108      H1115   1.088       .  S
C1108      C1109   1.362       .  D
C1109      C1240   1.477       .  S
C1109      C1110   1.548       .  S
C1110      C1114   1.567       .  S
C1110      C1112   1.562       .  S
C1110      H1116   1.110       .  S
C1111      H1117   1.086       .  S
C1111      C1112   1.372       .  D
C1113      H1118   1.078       .  S
C1113      C1114   1.376       .  D
O1119      C1122   1.270       .  A
C1120      O1129   1.264       .  A
C1120      O1125   1.269       .  A
O1121      C1127   1.271       .  A
O1121     Cd1124   2.395   1_655  S
C1122      O1130   1.267       .  A
C1123      O1128   1.272       .  A
C1123      O1126   1.265       .  A
Cd1124     O1131   2.471   1_455  S
Cd1124     O1129   2.462       .  S
Cd1124     O1125   2.401       .  S
C1127      O1131   1.265       .  A
O1132      C1135   1.265       .  A
O1132     Cd1137   2.516       .  S
C1133      O1142   1.266       .  A
C1133      O1138   1.263       .  A
C1133      C1358   1.483       .  S
O1134      C1140   1.265       .  A
O1134     Cd1137   2.528       .  S
C1135      O1143   1.268       .  A
C1135      C1187   1.487       .  S
C1136      O1141   1.264       .  A
C1136      O1139   1.268       .  A
C1136      C1199   1.483       .  S
Cd1137     O1144   2.431       .  S
Cd1137     O1143   2.485       .  S
Cd1137     O1142   2.537       .  S
Cd1137     O1138   2.446       .  S
Cd1137     O1141   2.502       .  S
Cd1137     O1139   2.478       .  S
C1140      O1144   1.262       .  A
C1140      C1370   1.479       .  S
O1145      C1148   1.264       .  A
O1145     Cd1150   2.508       .  S
C1146      O1155   1.265       .  A
C1146      O1151   1.263       .  A
C1146      C1334   1.481       .  S
O1147      C1153   1.265       .  A
O1147     Cd1150   2.538       .  S
C1148      O1156   1.267       .  A
C1148      C1175   1.483       .  S
C1149      O1154   1.265       .  A
C1149      O1152   1.268       .  A
C1149      C1163   1.481       .  S
Cd1150     O1157   2.416       .  S
Cd1150     O1156   2.465       .  S
Cd1150     O1155   2.543       .  S
Cd1150     O1151   2.427       .  S
Cd1150     O1154   2.491       .  S
Cd1150     O1152   2.463       .  S
C1153      O1157   1.263       .  A
C1153      C1346   1.480       .  S
C1158      C1159   1.501       .  S
C1158      C1164   1.519       .  S
C1158      C1162   1.532       .  S
C1158      C1207   1.501       .  S
C1159      H1166   1.078       .  S
C1159      C1160   1.374       .  D
C1160      C1161   1.569       .  S
C1161      C1165   1.556       .  S
C1161      C1163   1.557       .  S
C1161      H1167   1.110       .  S
C1162      H1168   1.086       .  S
C1162      C1163   1.372       .  D
C1164      H1169   1.088       .  S
C1164      C1165   1.360       .  D
C1165      C1310   1.485       .  S
C1170      C1171   1.506       .  S
C1170      C1176   1.522       .  S
C1170      C1174   1.528       .  S
C1170      C1214   1.498       .  S
C1171      H1178   1.079       .  S
C1171      C1172   1.373       .  D
C1172      C1173   1.567       .  S
C1173      C1177   1.549       .  S
C1173      C1175   1.560       .  S
C1173      H1179   1.109       .  S
C1174      H1180   1.086       .  S
C1174      C1175   1.372       .  D
C1176      H1181   1.088       .  S
C1176      C1177   1.361       .  D
C1177      C1307   1.482       .  S
C1182      C1183   1.502       .  S
C1182      C1188   1.522       .  S
C1182      C1186   1.530       .  S
C1182      C1209   1.497       .  S
C1183      H1190   1.077       .  S
C1183      C1184   1.373       .  D
C1184      C1185   1.566       .  S
C1185      C1189   1.552       .  S
C1185      C1187   1.562       .  S
C1185      H1191   1.110       .  S
C1186      H1192   1.086       .  S
C1186      C1187   1.372       .  D
C1188      H1193   1.088       .  S
C1188      C1189   1.361       .  D
C1189      C1320   1.483       .  S
C1194      C1195   1.501       .  S
C1194      C1200   1.519       .  S
C1194      C1198   1.532       .  S
C1194      C1210   1.499       .  S
C1195      H1202   1.078       .  S
C1195      C1196   1.375       .  D
C1196      C1197   1.570       .  S
C1197      C1201   1.557       .  S
C1197      C1199   1.558       .  S
C1197      H1203   1.110       .  S
C1198      H1204   1.086       .  S
C1198      C1199   1.371       .  D
C1200      H1205   1.088       .  S
C1200      C1201   1.362       .  D
C1201      C1323   1.486       .  S
O1206      C1209   1.271       .  A
C1207      O1216   1.264       .  A
C1207      O1212   1.271       .  A
O1208      C1214   1.270       .  A
C1209      O1217   1.264       .  A
C1210      O1215   1.270       .  A
C1210      O1213   1.264       .  A
Cd1211     O1216   2.480   1_545  S
Cd1211     O1212   2.417   1_545  S
Cd1211     O1215   2.413   1_445  S
Cd1211     O1213   2.464   1_445  S
C1214      O1218   1.268       .  A
O1219      C1222   1.264       .  A
C1220      O1229   1.265       .  A
C1220      O1225   1.263       .  A
O1221      C1227   1.265       .  A
C1222      O1230   1.267       .  A
C1222      C1274   1.478       .  S
C1223      O1228   1.265       .  A
C1223      O1226   1.268       .  A
C1223      C1262   1.477       .  S
Cd1224     O1229   2.538       .  S
Cd1224     O1225   2.430       .  S
Cd1224     O1228   2.481       .  S
Cd1224     O1226   2.454       .  S
C1227      O1231   1.263       .  A
O1232      C1235   1.265       .  A
O1232     Cd1237   2.486       .  S
C1233      O1242   1.265       .  A
C1233      O1238   1.263       .  A
O1234      C1240   1.265       .  A
O1234     Cd1237   2.542       .  S
C1235      O1243   1.268       .  A
C1235      C1286   1.479       .  S
C1236      O1241   1.263       .  A
C1236      O1239   1.269       .  A
C1236      C1250   1.482       .  S
Cd1237     O1244   2.418       .  S
Cd1237     O1243   2.462       .  S
C1240      O1244   1.262       .  A
C1245      C1246   1.504       .  S
C1245      C1251   1.522       .  S
C1245      C1249   1.531       .  S
C1245      C1296   1.497       .  S
C1246      H1253   1.077       .  S
C1246      C1247   1.376       .  D
C1247      C1248   1.568       .  S
C1248      C1252   1.549       .  S
C1248      C1250   1.560       .  S
C1248      H1254   1.110       .  S
C1249      H1255   1.086       .  S
C1249      C1250   1.371       .  D
C1251      H1256   1.089       .  S
C1251      C1252   1.360       .  D
C1257      C1258   1.503       .  S
C1257      C1263   1.522       .  S
C1257      C1261   1.529       .  S
C1257      C1294   1.499       .  S
C1258      H1265   1.077       .  S
C1258      C1259   1.373       .  D
C1259      C1260   1.566       .  S
C1260      C1264   1.550       .  S
C1260      C1262   1.557       .  S
C1260      H1266   1.110       .  S
C1261      H1267   1.086       .  S
C1261      C1262   1.371       .  D
C1263      H1268   1.088       .  S
C1263      C1264   1.362       .  D
C1269      C1270   1.501       .  S
C1269      C1275   1.522       .  S
C1269      C1273   1.526       .  S
C1269      C1301   1.490       .  S
C1270      H1277   1.076       .  S
C1270      C1271   1.374       .  D
C1271      C1272   1.563       .  S
C1271      C1351   1.512       .  S
C1272      C1276   1.549       .  S
C1272      C1274   1.560       .  S
C1272      H1278   1.110       .  S
C1273      H1279   1.086       .  S
C1273      C1274   1.370       .  D
C1275      H1280   1.088       .  S
C1275      C1276   1.361       .  D
C1281      C1282   1.504       .  S
C1281      C1287   1.522       .  S
C1281      C1285   1.529       .  S
C1281      C1297   1.496       .  S
C1282      H1289   1.078       .  S
C1282      C1283   1.375       .  D
C1283      C1284   1.566       .  S
C1283      C1363   1.514       .  S
C1284      C1288   1.552       .  S
C1284      C1286   1.557       .  S
C1284      H1290   1.110       .  S
C1285      H1291   1.086       .  S
C1285      C1286   1.369       .  D
C1287      H1292   1.088       .  S
C1287      C1288   1.362       .  D
O1293      C1296   1.271       .  A
O1293     Cd1298   2.412       .  S
C1294      O1303   1.265       .  A
C1294      O1299   1.269       .  A
O1295      C1301   1.270       .  A
O1295     Cd1298   2.386       .  S
C1296      O1304   1.264       .  A
C1297      O1302   1.270       .  A
C1297      O1300   1.265       .  A
Cd1298     O1305   2.445       .  S
Cd1298     O1304   2.455       .  S
Cd1298     O1303   2.477       .  S
Cd1298     O1299   2.401       .  S
Cd1298     O1302   2.405       .  S
Cd1298     O1300   2.458       .  S
C1301      O1305   1.264       .  A
O1306      C1309   1.264       .  A
O1306     Cd1311   2.485   1_565  S
C1307      O1316   1.265       .  A
C1307      O1312   1.262       .  A
O1308      C1314   1.265       .  A
C1309      O1317   1.267       .  A
C1309      C1337   1.479       .  S
C1310      O1315   1.265       .  A
C1310      O1313   1.264   1_565  A
Cd1311     O1317   2.471   1_545  S
Cd1311     O1315   2.555   1_545  S
Cd1311     O1313   2.426       .  S
C1314      O1318   1.266       .  A
C1314      C1349   1.482       .  S
O1319      C1322   1.264       .  A
O1319     Cd1324   2.477       .  S
C1320      O1329   1.263       .  A
C1320      O1325   1.265       .  A
O1321      C1327   1.263       .  A
C1322      O1330   1.267       .  A
C1322      C1361   1.477       .  S
C1323      O1328   1.263   1_565  A
C1323      O1326   1.265       .  A
Cd1324     O1330   2.463       .  S
Cd1324     O1328   2.418   1_565  S
Cd1324     O1326   2.555       .  S
C1327      O1331   1.268       .  A
C1327      C1373   1.481       .  S
C1332      C1333   1.521       .  S
C1332      C1338   1.503       .  S
C1332      C1336   1.531       .  S
C1332      C1388   1.500       .  S
C1333      H1340   1.088       .  S
C1333      C1334   1.361       .  D
C1334      C1335   1.552       .  S
C1335      C1339   1.564       .  S
C1335      C1337   1.557       .  S
C1335      H1341   1.110       .  S
C1336      H1342   1.086       .  S
C1336      C1337   1.372       .  D
C1338      H1343   1.076       .  S
C1338      C1339   1.375       .  D
C1344      C1345   1.519       .  S
C1344      C1350   1.499       .  S
C1344      C1348   1.530       .  S
C1344      C1383   1.496       .  S
C1345      H1352   1.088       .  S
C1345      C1346   1.361       .  D
C1346      C1347   1.553       .  S
C1347      C1351   1.566       .  S
C1347      C1349   1.557       .  S
C1347      H1353   1.110       .  S
C1348      H1354   1.086       .  S
C1348      C1349   1.373       .  D
C1350      H1355   1.075       .  S
C1350      C1351   1.372       .  D
C1356      C1357   1.527       .  S
C1356      C1362   1.502       .  S
C1356      C1360   1.529       .  S
C1356      C1381   1.498       .  S
C1357      H1364   1.088       .  S
C1357      C1358   1.363       .  D
C1358      C1359   1.549       .  S
C1359      C1363   1.567       .  S
C1359      C1361   1.556       .  S
C1359      H1365   1.110       .  S
C1360      H1366   1.086       .  S
C1360      C1361   1.370       .  D
C1362      H1367   1.078       .  S
C1362      C1363   1.372       .  D
C1368      C1369   1.527       .  S
C1368      C1374   1.501       .  S
C1368      C1372   1.529       .  S
C1368      C1384   1.496       .  S
C1369      H1376   1.088       .  S
C1369      C1370   1.362       .  D
C1370      C1371   1.546       .  S
C1371      C1375   1.565       .  S
C1371      C1373   1.561       .  S
C1371      H1377   1.110       .  S
C1372      H1378   1.086       .  S
C1372      C1373   1.372       .  D
C1374      H1379   1.079       .  S
C1374      C1375   1.370       .  D
O1380      C1383   1.270       .  A
O1380     Cd1385   2.388       .  S
C1381      O1390   1.265       .  A
C1381      O1386   1.270       .  A
O1382      C1388   1.271       .  A
O1382     Cd1385   2.407       .  S
C1383      O1391   1.265       .  A
C1384      O1389   1.271       .  A
C1384      O1387   1.264       .  A
Cd1385     O1392   2.469       .  S
Cd1385     O1391   2.469       .  S
Cd1385     O1390   2.460       .  S
Cd1385     O1386   2.407       .  S
Cd1385     O1389   2.393       .  S
Cd1385     O1387   2.463       .  S
C1388      O1392   1.265       .  A
