geometry optimzed in LAMMPS
_audit_creation_date              2020-11-30 
_audit_creation_method            'lammps2cif' 
_symmetry_space_group_name_H-M    'P1' 
_symmetry_Int_Tables_number       1 
_symmetry_cell_setting            triclinic 
loop_ 
_symmetry_equiv_pos_as_xyz 
  x,y,z 
_cell_length_a                    38.56563112243775 
_cell_length_b                    38.61216585412252 
_cell_length_c                    27.323339286588528 
_cell_angle_alpha                 89.9079662943495 
_cell_angle_beta                  89.97307713219934 
_cell_angle_gamma                 120.28420994494371 
loop_ 
_atom_site_label 
_atom_site_type_symbol 
_atom_site_fract_x 
_atom_site_fract_y 
_atom_site_fract_z 
_atom_site_charge 
O1          O  0.26955921  0.09671306  0.71117211    -0.85500
O2          O  0.34780498  0.12150284  0.68710917    -0.82550
C3          C  0.38521947  0.14413320  0.68304095     0.97960
O4          O  0.40422201  0.17291374  0.71236385    -0.82580
O5          O  0.37850567  0.22565195  0.68643306    -0.85230
C6          C  0.35555571  0.23994475  0.68239685     1.02490
O7          O  0.32770254  0.23090225  0.71310878    -0.77990
O8          O  0.27378200  0.15290000  0.68779806    -0.78180
C9          C  0.25953866  0.11575257  0.68211880     1.02440
O10         O  0.29081208  0.10516146  0.81304515    -0.85500
O11         O  0.36716316  0.12312413  0.78959433    -0.82560
C12         C  0.38945381  0.15107937  0.81870370     0.97980
O13         O  0.39488663  0.18593860  0.81313711    -0.82590
O14         O  0.37724166  0.24463083  0.78793975    -0.85200
C15         C  0.34994362  0.23851144  0.81830734     1.02450
O16         O  0.31540030  0.20797717  0.81463791    -0.78020
O17         O  0.25533321  0.13192315  0.78902385    -0.78160
C18         C  0.26095259  0.10976549  0.81811163     1.02410
Cr19       Cr  0.31989202  0.11547359  0.75020036     1.93740
Cr20       Cr  0.38482413  0.20444903  0.74994739     1.93210
Cr21       Cr  0.29590925  0.17992341  0.75116360     1.39100
O22         O  0.33353275  0.16654497  0.75053395    -1.23250
C23         C  0.37981412  0.36012093  0.96205764     0.02980
C24         C  0.41699707  0.39598965  0.96414450    -0.13170
C25         C  0.42375241  0.42560249  0.99878649     0.00480
C26         C  0.39334255  0.41854275  0.03247205    -0.11700
C27         C  0.35676747  0.38213638  0.03189538     0.02970
C28         C  0.35012298  0.35311028  0.99672294    -0.11120
H29         H  0.44033559  0.40118517  0.93806840     0.08560
H30         H  0.39841429  0.44090796  0.05983907     0.06090
H31         H  0.32161367  0.32520561  0.99606170     0.05940
C32         C  0.00011961  0.03700871  0.00010840     0.02980
C33         C  0.03618565  0.03639944  0.00053596    -0.13170
C34         C  0.03579233  0.99985369  0.00043520     0.00480
C35         C  0.99885880  0.46369425  0.00007694    -0.11700
C36         C  0.46253534  0.46385192  0.99970674     0.02970
C37         C  0.46339948  0.00063764  0.99970050    -0.11120
H38         H  0.06459731  0.06440972  0.00072930     0.08560
H39         H  0.49841641  0.43540222  0.99991436     0.06090
H40         H  0.43543177  0.50097650  0.99915760     0.05940
C41         C  0.48098024  0.12028436  0.96168639     0.02980
C42         C  0.47969058  0.08330873  0.96323051    -0.13170
C43         C  0.50087491  0.07568175  0.99938868     0.00480
C44         C  0.02302476  0.10524141  0.03451575    -0.11700
C45         C  0.02351060  0.14178594  0.03386175     0.02970
C46         C  0.50236738  0.14911112  0.99766215    -0.11120
H47         H  0.46284904  0.06080812  0.93571916     0.08560
H48         H  0.03936510  0.09963325  0.06270789     0.06090
H49         H  0.50260137  0.17730953  0.99744401     0.05940
C50         C  0.11715088  0.47670903  0.03567114     0.02980
C51         C  0.14632195  0.49888490  0.00001721    -0.13170
C52         C  0.13952278  0.02086592  0.96427685     0.00480
C53         C  0.10382472  0.02216364  0.96567692    -0.11700
C54         C  0.07391523  0.49947586  0.00031319     0.02970
C55         C  0.08046544  0.47624868  0.03458874    -0.11120
H56         H  0.17449342  0.49902858  0.99992241     0.08560
H57         H  0.09885976  0.03995815  0.93890568     0.06090
H58         H  0.05709030  0.45816746  0.06073089     0.05940
O59         O  0.13116384  0.25496443  0.20969931    -0.85500
O60         O  0.20787171  0.31340203  0.18576980    -0.82550
C61         C  0.23810700  0.34797166  0.18115747     0.97960
O62         O  0.24379926  0.37594362  0.20994701    -0.82580
O63         O  0.18504271  0.39322346  0.18617795    -0.85230
C64         C  0.15039719  0.38854103  0.18173643     1.02490
O65         O  0.12289868  0.36708789  0.21187879    -0.77990
O66         O  0.10375407  0.29043127  0.18713257    -0.78180
C67         C  0.10851697  0.26070454  0.18158474     1.02440
O68         O  0.15116548  0.27204475  0.31155881    -0.85500
O69         O  0.22934566  0.32530149  0.28726970    -0.82560
C70         C  0.23940377  0.35367929  0.31726238     0.97980
O71         O  0.22620747  0.37747821  0.31207220    -0.82590
O72         O  0.17307870  0.40278843  0.28786762    -0.85200
C73         C  0.14426805  0.38417404  0.31759820     1.02450
O74         O  0.12155430  0.34681382  0.31342998    -0.78020
O75         O  0.09513346  0.26840287  0.28846309    -0.78160
C76         C  0.11396823  0.25783371  0.31699103     1.02410
Cr77       Cr  0.17883769  0.29433785  0.24859748     1.93740
Cr78       Cr  0.20411624  0.38342480  0.24906746     1.93210
Cr79       Cr  0.11481690  0.31923053  0.25016085     1.39100
O80         O  0.16592065  0.33227904  0.24907469    -1.23250
C81         C  0.35742751  0.38177117  0.46770889     0.02980
C82         C  0.35090475  0.35246962  0.50306289    -0.13170
C83         C  0.38112844  0.35882086  0.53653822     0.00480
C84         C  0.41800797  0.39474648  0.53514543    -0.11700
C85         C  0.42501421  0.42420270  0.50025799     0.02970
C86         C  0.39498088  0.41730766  0.46623977    -0.11120
H87         H  0.32216306  0.32492244  0.50515616     0.08560
H88         H  0.44107826  0.39990311  0.56158304     0.06090
H89         H  0.40132142  0.43950569  0.43807592     0.05940
C90         C  0.03658182  0.99973072  0.49968142     0.02980
C91         C  0.50006782  0.46316475  0.49947985    -0.13170
C92         C  0.46341811  0.46261710  0.49993784     0.00480
C93         C  0.46341620  0.49893385  0.50072641    -0.11700
C94         C  0.99970040  0.03559776  0.50095871     0.02970
C95         C  0.03617612  0.03583556  0.50037271    -0.11120
H96         H  0.50017264  0.43514577  0.49906394     0.08560
H97         H  0.43516837  0.49866082  0.50124438     0.06090
H98         H  0.06427372  0.06416638  0.50047919     0.05940
C99         C  0.47841616  0.11716023  0.53921663     0.02980
C100        C  0.50139328  0.14718224  0.50486838    -0.13170
C101        C  0.02278928  0.14045970  0.46796611     0.00480
C102        C  0.02178282  0.10356265  0.46706942    -0.11700
C103        C  0.49962803  0.07375273  0.50188965     0.02970
C104        C  0.47761511  0.08051114  0.53756622    -0.11120
H105        H  0.50289141  0.17588480  0.50750117     0.08560
H106        H  0.03763916  0.09756321  0.43863153     0.06090
H107        H  0.46007964  0.05738660  0.56426737     0.05940
C108        C  0.11853419  0.47795217  0.46377293     0.02980
C109        C  0.14795228  0.50039707  0.49891871    -0.13170
C110        C  0.14144510  0.02326054  0.53359658     0.00480
C111        C  0.10525345  0.02353255  0.53318951    -0.11700
C112        C  0.07511967  0.50024099  0.49921323     0.02970
C113        C  0.08191807  0.47744884  0.46470466    -0.11120
H114        H  0.17606830  0.50042040  0.49890540     0.08560
H115        H  0.10015770  0.04104830  0.56017629     0.06090
H116        H  0.05905887  0.46004531  0.43776492     0.05940
C117        C  0.05387803  0.22178828  0.37061310    -0.26470
C118        C  0.09163331  0.22810772  0.35621727    -0.14540
C119        C  0.10677196  0.20549704  0.37893149     0.36090
C120        C  0.08437197  0.17817923  0.41628258    -0.25920
C121        C  0.04641181  0.17160347  0.43033048    -0.15160
C122        C  0.03105209  0.19357401  0.40672944     0.37170
N123        N  0.99169395  0.18645512  0.41795509    -0.89410
H124        H  0.04160330  0.23856763  0.35335968     0.18280
H125        H  0.09652179  0.16156075  0.43419859     0.18280
N126        N  0.14429414  0.20955370  0.36342746    -0.88440
H127        H  0.99439809  0.21350781  0.42955135     0.35650
H128        H  0.47471508  0.17771563  0.38580320     0.40750
H129        H  0.14054950  0.19899199  0.32748552     0.40370
H130        H  0.15129738  0.19121671  0.38437187     0.35260
C131        C  0.16457778  0.44855052  0.36029108    -0.26470
C132        C  0.13701170  0.40720716  0.35596455    -0.14540
C133        C  0.10308125  0.38949042  0.38731513     0.36090
C134        C  0.09819347  0.41335252  0.42235778    -0.25920
C135        C  0.12567762  0.45462074  0.42616578    -0.15160
C136        C  0.15903909  0.47251798  0.39404721     0.37170
N137        N  0.18683766  0.01501157  0.39258695    -0.89410
H138        H  0.19043879  0.46294335  0.33625215     0.18280
H139        H  0.07253949  0.39970420  0.44679948     0.18280
N140        N  0.07353382  0.34758927  0.38353643    -0.88440
H141        H  0.21411158  0.02012404  0.40705706     0.35650
H142        H  0.17715922  0.03116439  0.41337212     0.40750
H143        H  0.05868038  0.34342739  0.35016923     0.40370
H144        H  0.05164180  0.33917913  0.41075488     0.35260
C145        C  0.30374855  0.33666340  0.40941617    -0.26470
C146        C  0.32567177  0.37459574  0.43124414    -0.14540
C147        C  0.31741011  0.40503753  0.41731151     0.36090
C148        C  0.28914368  0.39741509  0.38023250    -0.25920
C149        C  0.26814672  0.35981282  0.35727759    -0.15260
C150        C  0.27498861  0.32876386  0.37303068     0.37170
N151        N  0.25243363  0.28907494  0.35280476    -0.89410
H152        H  0.30979119  0.31314006  0.41985114     0.18280
H153        H  0.28364850  0.42116076  0.36907000     0.18280
N154        N  0.33729979  0.44342162  0.44120320    -0.88440
H155        H  0.25742452  0.26888194  0.37279912     0.35650
H156        H  0.26373104  0.29001455  0.31774341     0.40750
H157        H  0.32844332  0.43878779  0.47792443     0.40370
H158        H  0.32797117  0.46242612  0.42656697     0.35260
C159        C  0.14263462  0.43101093  0.05914825    -0.26470
C160        C  0.12515622  0.45377446  0.07342844    -0.14540
C161        C  0.11632566  0.45486014  0.12342629     0.36090
C162        C  0.12430411  0.43252869  0.15751017    -0.25920
C163        C  0.14211116  0.41016862  0.14323257    -0.15160
C164        C  0.15113019  0.40909740  0.09317579     0.37170
N165        N  0.16782330  0.38557769  0.07511774    -0.89410
H166        H  0.14911877  0.42956668  0.02085360     0.18280
H167        H  0.11757600  0.43342773  0.19586329     0.18280
N168        N  0.10034356  0.47942681  0.13969990    -0.88440
H169        H  0.14735599  0.36486474  0.05015544     0.35650
H170        H  0.17080483  0.36853995  0.10261597     0.40750
H171        H  0.12209861  0.50933291  0.13296353     0.40370
H172        H  0.09545392  0.47669382  0.17750671     0.35260
C173        C  0.10526885  0.23287114  0.09911532    -0.26470
C174        C  0.08615184  0.23103491  0.14346557    -0.14540
C175        C  0.04661161  0.19970748  0.15212247     0.36090
C176        C  0.02663160  0.17061583  0.11576602    -0.25920
C177        C  0.04570442  0.17244516  0.07137077    -0.15160
C178        C  0.08519988  0.20389032  0.06262990     0.37170
N179        N  0.10480621  0.20583992  0.01709594    -0.89410
H180        H  0.13584480  0.25692152  0.09306834     0.18280
H181        H  0.99615972  0.14641487  0.12196589     0.18280
N182        N  0.02707221  0.19763498  0.19776752    -0.88440
H183        H  0.13403906  0.23044611  0.01683420     0.35650
H184        H  0.08926766  0.21087259  0.98925574     0.40750
H185        H  0.04275638  0.19271191  0.22553209     0.40370
H186        H  0.99788460  0.17295371  0.19811007     0.35260
C187        C  0.32023110  0.34643323  0.10661966    -0.26470
C188        C  0.32577933  0.37363809  0.06917524    -0.14540
C189        C  0.30206799  0.39211006  0.06847772     0.36090
C190        C  0.27368665  0.38307389  0.10566490    -0.25920
C191        C  0.26811804  0.35579891  0.14305948    -0.15160
C192        C  0.29188650  0.33738330  0.14376355     0.37170
N193        N  0.28945234  0.31082075  0.18232840    -0.89410
H194        H  0.33866255  0.33257316  0.10742786     0.18280
H195        H  0.25543849  0.39713931  0.10504732     0.18280
N196        N  0.30508066  0.41915366  0.03024402    -0.88440
H197        H  0.27886726  0.28244482  0.16700649     0.35650
H198        H  0.26918368  0.30771542  0.20964032     0.40750
H199        H  0.32577592  0.42248969  0.00337391     0.40370
H200        H  0.31560887  0.44736859  0.04601487     0.35260
C201        C  0.19137289  0.06092406  0.84141270    -0.26470
C202        C  0.23088895  0.08738285  0.85633215    -0.14540
C203        C  0.24033666  0.09161050  0.90684075     0.36090
C204        C  0.20976039  0.06978516  0.94089600    -0.25920
C205        C  0.17023179  0.04293731  0.92603033    -0.15160
C206        C  0.16117611  0.03785593  0.87532674     0.37170
N207        N  0.12262892  0.00829852  0.85655357    -0.89410
H208        H  0.18419740  0.05704849  0.80270789     0.18280
H209        H  0.21697411  0.07400268  0.97956697     0.18280
N210        N  0.27991666  0.11860429  0.92522158    -0.88440
H211        H  0.10864085  0.02338525  0.84256584     0.35650
H212        H  0.10409242  0.98846483  0.88353321     0.40750
H213        H  0.30040706  0.13326907  0.89706839     0.40370
H214        H  0.28972525  0.10146975  0.94386947     0.35260
C215        C  0.20910898  0.05099031  0.64454776    -0.26470
C216        C  0.22973516  0.09324235  0.64283188    -0.14540
C217        C  0.22110759  0.11215362  0.60387718     0.36090
C218        C  0.19248463  0.08872005  0.56860557    -0.25920
C219        C  0.17228726  0.04675136  0.57069476    -0.15160
C220        C  0.18060217  0.02762500  0.60897965     0.37170
N221        N  0.15899725  0.48457944  0.61262595    -0.89410
H222        H  0.21492012  0.03586260  0.67407836     0.18280
H223        H  0.18594847  0.10340780  0.53916084     0.18280
N224        N  0.24092261  0.15485132  0.59855279    -0.88440
H225        H  0.16714594  0.47532235  0.64440767     0.35650
H226        H  0.16784766  0.47343696  0.58332851     0.40750
H227        H  0.27188758  0.16624767  0.59647727     0.40370
H228        H  0.23432166  0.16690987  0.62894107     0.35260
C229        C  0.45335124  0.16922635  0.85973251    -0.26470
C230        C  0.41165810  0.14341930  0.85717555    -0.14540
C231        C  0.39308100  0.10970893  0.88889687     0.36090
C232        C  0.41685345  0.10252911  0.92133825    -0.25920
C233        C  0.45850997  0.12824957  0.92376562    -0.15160
C234        C  0.47718681  0.16171020  0.89176003     0.37170
N235        N  0.02004660  0.18794876  0.88954290    -0.89410
H236        H  0.46784925  0.19466184  0.83504657     0.18280
H237        H  0.40240489  0.07705843  0.94598570     0.18280
N238        N  0.35039590  0.08265813  0.89035841    -0.88440
H239        H  0.02922222  0.18675953  0.85387101     0.35650
H240        H  0.03511903  0.17791777  0.91186628     0.40750
H241        H  0.33523246  0.09255060  0.86816152     0.40370
H242        H  0.34069072  0.08302888  0.92597765     0.35260
C243        C  0.43887390  0.12980032  0.66101442    -0.26470
C244        C  0.40772462  0.13602819  0.64572510    -0.14540
C245        C  0.39977089  0.13608541  0.59540097     0.36090
C246        C  0.42376230  0.13054770  0.56116075    -0.25920
C247        C  0.45464394  0.12388146  0.57647072    -0.15160
C248        C  0.46220076  0.12327332  0.62685536     0.37170
N249        N  0.49372772  0.11642574  0.64300048    -0.89410
H250        H  0.44486082  0.12989578  0.69979211     0.18280
H251        H  0.41810616  0.13092380  0.52236638     0.18280
N252        N  0.36839252  0.14313955  0.57927748    -0.88440
H253        H  0.49517979  0.11666237  0.68121848     0.35650
H254        H  0.02096563  0.14044367  0.63066565     0.40750
H255        H  0.34099830  0.11871400  0.59044216     0.40370
H256        H  0.36756604  0.14384892  0.54105744     0.35260
C257        C  0.36473364  0.30552928  0.65813026    -0.26470
C258        C  0.36231557  0.26946526  0.64378253    -0.14540
C259        C  0.36536442  0.26250241  0.59343238     0.36090
C260        C  0.37127961  0.29205818  0.55911131    -0.25920
C261        C  0.37408678  0.32816492  0.57373292    -0.15160
C262        C  0.37070446  0.33501369  0.62362581     0.37170
N263        N  0.37325158  0.37184009  0.63892096    -0.89410
H264        H  0.36217794  0.31078567  0.69658375     0.18280
H265        H  0.37355868  0.28675063  0.52060966     0.18280
N266        N  0.36078055  0.22546690  0.57539444    -0.88440
H267        H  0.37042342  0.37229676  0.67694091     0.35650
H268        H  0.34872657  0.37263686  0.62391131     0.40750
H269        H  0.35273121  0.20406540  0.60295981     0.40370
H270        H  0.38855062  0.23151856  0.56147962     0.35260
C271        C  0.37090397  0.30816675  0.84036869    -0.26470
C272        C  0.35809130  0.26893049  0.85598974    -0.14540
C273        C  0.35264469  0.25984366  0.90657569     0.36090
C274        C  0.35957713  0.29012900  0.93999943    -0.25920
C275        C  0.37203856  0.32939658  0.92441767    -0.15160
C276        C  0.37721445  0.33831953  0.87363913     0.37170
N277        N  0.38657555  0.37666227  0.85405257    -0.89410
H278        H  0.37461204  0.31512964  0.80157565     0.18280
H279        H  0.35602774  0.28309660  0.97875929     0.18280
N280        N  0.34217675  0.22106973  0.92563688    -0.88440
H281        H  0.41610850  0.39083069  0.84107004     0.35650
H282        H  0.38461189  0.39513045  0.88034928     0.40750
H283        H  0.34211675  0.20222723  0.89834796     0.40370
H284        H  0.31306689  0.20803241  0.93982545     0.35260
O285        O  0.26953778  0.59670959  0.71118058    -0.85500
O286        O  0.34778381  0.62149316  0.68712452    -0.82550
C287        C  0.38519849  0.64412314  0.68305581     0.97960
O288        O  0.40420074  0.67290415  0.71237806    -0.82580
O289        O  0.37848628  0.72564175  0.68643855    -0.85230
C290        C  0.35554002  0.73993860  0.68240169     1.02490
O291        O  0.32768696  0.73089935  0.71311272    -0.77990
O292        O  0.27376207  0.65289717  0.68780499    -0.78180
C293        C  0.25951886  0.61574961  0.68212585     1.02440
O294        O  0.29078378  0.60515871  0.81305630    -0.85500
O295        O  0.36713616  0.62311909  0.78961417    -0.82560
C296        C  0.38942805  0.65107691  0.81872008     0.97980
O297        O  0.39486326  0.68593630  0.81314780    -0.82590
O298        O  0.37722337  0.74462849  0.78794177    -0.85200
C299        C  0.34992772  0.73851083  0.81831209     1.02450
O300        O  0.31538275  0.70797843  0.81464340    -0.78020
O301        O  0.25531027  0.63192498  0.78903044    -0.78160
C302        C  0.26092557  0.60976550  0.81811962     1.02410
Cr303      Cr  0.31986779  0.61546835  0.75021380     1.93740
Cr304      Cr  0.38480318  0.70444273  0.74995533     1.93210
Cr305      Cr  0.29589003  0.67992251  0.75116965     1.39100
O306        O  0.33351104  0.66654048  0.75054303    -1.23250
C307        C  0.37984235  0.86012057  0.96208310     0.02980
C308        C  0.41702726  0.89598769  0.96416471    -0.13170
C309        C  0.42378910  0.92560193  0.99880779     0.00480
C310        C  0.39338493  0.91854418  0.03250175    -0.11700
C311        C  0.35680839  0.88213886  0.03193079     0.02970
C312        C  0.35015709  0.85311224  0.99675614    -0.11120
H313        H  0.44036133  0.90118194  0.93808220     0.08560
H314        H  0.39846129  0.94091118  0.05986824     0.06090
H315        H  0.32164579  0.82520960  0.99609755     0.05940
C316        C  0.00008599  0.53700790  0.00011909     0.02980
C317        C  0.03615094  0.53639689  0.00054728    -0.13170
C318        C  0.03575596  0.49985057  0.00043705     0.00480
C319        C  0.99889565  0.96369644  0.00008488    -0.11700
C320        C  0.46257139  0.96385245  0.99971677     0.02970
C321        C  0.46336509  0.50063786  0.99970029    -0.11120
H322        H  0.06456331  0.56440639  0.00074714     0.08560
H323        H  0.49845402  0.93540477  0.99992895     0.06090
H324        H  0.43546540  0.00097481  0.99915937     0.05940
C325        C  0.48095320  0.62028928  0.96170877     0.02980
C326        C  0.47965882  0.58331166  0.96325098    -0.13170
C327        C  0.50084383  0.57568201  0.99940494     0.00480
C328        C  0.02299944  0.60524130  0.03452994    -0.11700
C329        C  0.02349084  0.64178853  0.03387723     0.02970
C330        C  0.50234655  0.64911641  0.99768171    -0.11120
H331        H  0.46281353  0.56081171  0.93574039     0.08560
H332        H  0.03934093  0.59963133  0.06271874     0.06090
H333        H  0.50258502  0.67731704  0.99746408     0.05940
C334        C  0.11718726  0.97671267  0.03567283     0.02980
C335        C  0.14635786  0.99888575  0.00001760    -0.13170
C336        C  0.13948655  0.52086581  0.96427762     0.00480
C337        C  0.10378794  0.52216221  0.96567847    -0.11700
C338        C  0.07395231  0.99947978  0.00031308     0.02970
C339        C  0.08050280  0.97625423  0.03459091    -0.11120
H340        H  0.17452844  0.99902759  0.99992266     0.08560
H341        H  0.09882290  0.53995801  0.93890925     0.06090
H342        H  0.05712849  0.95817523  0.06073506     0.05940
O343        O  0.13117928  0.75496312  0.20970105    -0.85500
O344        O  0.20789247  0.81339897  0.18578073    -0.82550
C345        C  0.23813006  0.84796800  0.18117357     0.97960
O346        O  0.24382000  0.87593881  0.20996343    -0.82580
O347        O  0.18506570  0.89321974  0.18618518    -0.85230
C348        C  0.15042162  0.88854054  0.18174254     1.02490
O349        O  0.12292200  0.86709008  0.21188518    -0.77990
O350        O  0.10377012  0.79043218  0.18714026    -0.78180
C351        C  0.10853101  0.76070453  0.18159031     1.02440
O352        O  0.15117419  0.77203556  0.31156446    -0.85500
O353        O  0.22935648  0.82529287  0.28728381    -0.82560
C354        C  0.23941526  0.85367193  0.31727491     0.97980
O355        O  0.22622020  0.87747168  0.31208360    -0.82590
O356        O  0.17309721  0.90278725  0.28787255    -0.85200
C357        C  0.14428687  0.88417399  0.31760370     1.02450
O358        O  0.12157360  0.84681374  0.31343731    -0.78020
O359        O  0.09514590  0.76840216  0.28846982    -0.78160
C360        C  0.11397771  0.75782980  0.31699816     1.02410
Cr361      Cr  0.17885167  0.79433222  0.24860536     1.93740
Cr362      Cr  0.20413465  0.88342060  0.24907721     1.93210
Cr363      Cr  0.11483476  0.81923086  0.25016799     1.39100
O364        O  0.16593735  0.83227544  0.24908269    -1.23250
C365        C  0.35744154  0.88177204  0.46771642     0.02980
C366        C  0.35091743  0.85247275  0.50307326    -0.13170
C367        C  0.38114091  0.85882415  0.53654804     0.00480
C368        C  0.41802175  0.89474822  0.53515302    -0.11700
C369        C  0.42502895  0.92420268  0.50026243     0.02970
C370        C  0.39499556  0.91730715  0.46624412    -0.11120
H371        H  0.32217483  0.82492667  0.50516856     0.08560
H372        H  0.44109194  0.89990494  0.56159081     0.06090
H373        H  0.40133622  0.93950366  0.43807813     0.05940
C374        C  0.03656722  0.49973074  0.49968359     0.02980
C375        C  0.50008270  0.96316437  0.49948196    -0.13170
C376        C  0.46343292  0.96261650  0.49993955     0.00480
C377        C  0.46343063  0.99893294  0.50072371    -0.11700
C378        C  0.99968639  0.53559863  0.50096561     0.02970
C379        C  0.03616188  0.53583573  0.50037962    -0.11120
H380        H  0.50018784  0.93514553  0.49906937     0.08560
H381        H  0.43518266  0.99865966  0.50124172     0.06090
H382        H  0.06425972  0.56416629  0.50048914     0.05940
C383        C  0.47840386  0.61716274  0.53922608     0.02980
C384        C  0.50138490  0.64718656  0.50488046    -0.13170
C385        C  0.02278395  0.64046505  0.46798032     0.00480
C386        C  0.02177440  0.60356649  0.46708221    -0.11700
C387        C  0.49961532  0.57375458  0.50189859     0.02970
C388        C  0.47760081  0.58051252  0.53757348    -0.11120
H389        H  0.50288424  0.67588960  0.50751417     0.08560
H390        H  0.03763199  0.59756733  0.43864569     0.06090
H391        H  0.46006271  0.55738671  0.56427211     0.05940
C392        C  0.11854983  0.97795401  0.46377171     0.02980
C393        C  0.14796765  0.00039937  0.49891749    -0.13170
C394        C  0.14143038  0.52325864  0.53359795     0.00480
C395        C  0.10523903  0.52353130  0.53319119    -0.11700
C396        C  0.07513440  0.00024166  0.49921156     0.02970
C397        C  0.08193330  0.97744979  0.46470325    -0.11120
H398        H  0.17608393  0.00042321  0.49890445     0.08560
H399        H  0.10014378  0.54104715  0.56017831     0.06090
H400        H  0.05907413  0.96004576  0.43776369     0.05940
C401        C  0.05388652  0.72179401  0.37062274    -0.26470
C402        C  0.09163999  0.72810740  0.35622806    -0.14540
C403        C  0.10677435  0.70549511  0.37894812     0.36090
C404        C  0.08437152  0.67818093  0.41630156    -0.25920
C405        C  0.04641232  0.67160996  0.43034688    -0.15160
C406        C  0.03105779  0.69358348  0.40674181     0.37170
N407        N  0.99170171  0.68647102  0.41796560    -0.89410
H408        H  0.04161511  0.73857509  0.35336597     0.18280
H409        H  0.09651800  0.66156072  0.43422080     0.18280
N410        N  0.14429495  0.70954621  0.36344756    -0.88440
H411        H  0.99440996  0.71352624  0.42955843     0.35650
H412        H  0.47472289  0.67773145  0.38581373     0.40750
H413        H  0.14054979  0.69898140  0.32750707     0.40370
H414        H  0.15129516  0.69120890  0.38439599     0.35260
C415        C  0.16459573  0.94855132  0.36029378    -0.26470
C416        C  0.13702972  0.90720794  0.35596784    -0.14540
C417        C  0.10309814  0.88949174  0.38731663     0.36090
C418        C  0.09820951  0.91335426  0.42235766    -0.25920
C419        C  0.12569374  0.95462242  0.42616544    -0.15160
C420        C  0.15905605  0.97251927  0.39404809     0.37170
N421        N  0.18682084  0.51501027  0.39258665    -0.89410
H422        H  0.19045742  0.96294366  0.33625583     0.18280
H423        H  0.07255485  0.89970627  0.44679834     0.18280
N424        N  0.07355035  0.84759070  0.38353764    -0.88440
H425        H  0.21409519  0.52012233  0.40705481     0.35650
H426        H  0.17714330  0.53116290  0.41337373     0.40750
H427        H  0.05869827  0.84342884  0.35016941     0.40370
H428        H  0.05165731  0.83918102  0.41075469     0.35260
C429        C  0.30376347  0.83666149  0.40942667    -0.26470
C430        C  0.32568593  0.87459481  0.43125222    -0.14540
C431        C  0.31742301  0.90503532  0.41731894     0.36090
C432        C  0.28915527  0.89741053  0.38024141    -0.25920
C433        C  0.26815866  0.85980714  0.35728905    -0.15260
C434        C  0.27500225  0.82875955  0.37304262     0.37170
N435        N  0.25244800  0.78906988  0.35281855    -0.89410
H436        H  0.30980763  0.81313934  0.41986259     0.18280
H437        H  0.28365896  0.92115526  0.36907796     0.18280
N438        N  0.33731288  0.94342039  0.44120834    -0.88440
H439        H  0.25744037  0.76887817  0.37281360     0.35650
H440        H  0.26374485  0.79000890  0.31775701     0.40750
H441        H  0.32845775  0.93878786  0.47793006     0.40370
H442        H  0.32798309  0.96242380  0.42657163     0.35260
C443        C  0.14266284  0.93100839  0.05915179    -0.26470
C444        C  0.12519145  0.95377847  0.07343119    -0.14540
C445        C  0.11636544  0.95487016  0.12342923     0.36090
C446        C  0.12434020  0.93253711  0.15751452    -0.25920
C447        C  0.14213930  0.91016962  0.14323765    -0.15160
C448        C  0.15115479  0.90909312  0.09318075     0.37170
N449        N  0.16784058  0.88556642  0.07512431    -0.89410
H450        H  0.14914395  0.92956034  0.02085692     0.18280
H451        H  0.11761534  0.93344041  0.19586789     0.18280
N452        N  0.10039142  0.97944424  0.13970120    -0.88440
H453        H  0.14736952  0.86485314  0.05016528     0.35650
H454        H  0.17082083  0.86852913  0.10262427     0.40750
H455        H  0.12215007  0.00934835  0.13296069     0.40370
H456        H  0.09550444  0.97671522  0.17750854     0.35260
C457        C  0.10526911  0.73286575  0.09912046    -0.26470
C458        C  0.08615909  0.73103439  0.14347462    -0.14540
C459        C  0.04661637  0.69971405  0.15213653     0.36090
C460        C  0.02662715  0.67062370  0.11578166    -0.25920
C461        C  0.04569302  0.67244788  0.07138271    -0.15160
C462        C  0.08519069  0.70388647  0.06263632     0.37170
N463        N  0.10478938  0.70583102  0.01709790    -0.89410
H464        H  0.13584652  0.75691147  0.09306907     0.18280
H465        H  0.99615357  0.64642769  0.12198570     0.18280
N466        N  0.02708375  0.69764753  0.19778502    -0.88440
H467        H  0.13402483  0.73043275  0.01683208     0.35650
H468        H  0.08925084  0.71086842  0.98926204     0.40750
H469        H  0.04276688  0.69271941  0.22554631     0.40370
H470        H  0.99789319  0.67297123  0.19813110     0.35260
C471        C  0.32026646  0.84643559  0.10665362    -0.26470
C472        C  0.32582126  0.87364437  0.06921123    -0.14540
C473        C  0.30211088  0.89211738  0.06850991     0.36090
C474        C  0.27372313  0.88307732  0.10569015    -0.25920
C475        C  0.26814652  0.85579709  0.14308144    -0.15160
C476        C  0.29191521  0.83738169  0.14379061     0.37170
N477        N  0.28947402  0.81081477  0.18235371    -0.89410
H478        H  0.33869655  0.83257409  0.10746452     0.18280
H479        H  0.25547584  0.89714364  0.10506925     0.18280
N480        N  0.30513017  0.91916537  0.03027833    -0.88440
H481        H  0.27889232  0.78244072  0.16702776     0.35650
H482        H  0.26919973  0.80770580  0.20965985     0.40750
H483        H  0.32582974  0.92250442  0.00341277     0.40370
H484        H  0.31565599  0.94737856  0.04605311     0.35260
C485        C  0.19134240  0.56092885  0.84141630    -0.26470
C486        C  0.23085865  0.58738446  0.85633835    -0.14540
C487        C  0.24030315  0.59161129  0.90684789     0.36090
C488        C  0.20972468  0.56978662  0.94090090    -0.25920
C489        C  0.17019653  0.54294006  0.92603263    -0.15160
C490        C  0.16114306  0.53786150  0.87532827     0.37170
N491        N  0.12259567  0.50830739  0.85655202    -0.89410
H492        H  0.18416871  0.55705473  0.80271098     0.18280
H493        H  0.21693661  0.57400294  0.97957237     0.18280
N494        N  0.27988227  0.61860356  0.92523200    -0.88440
H495        H  0.10861034  0.52339698  0.84256487     0.35650
H496        H  0.10405699  0.48847296  0.88352968     0.40750
H497        H  0.30037474  0.63326639  0.89708022     0.40370
H498        H  0.28968784  0.60146808  0.94388358     0.35260
C499        C  0.20909154  0.55098757  0.64455177    -0.26470
C500        C  0.22971748  0.59323966  0.64283671    -0.14540
C501        C  0.22109192  0.61215119  0.60388045     0.36090
C502        C  0.19247038  0.58871787  0.56860732    -0.25920
C503        C  0.17227266  0.54674914  0.57069627    -0.15160
C504        C  0.18058635  0.52762251  0.60898196     0.37170
N505        N  0.15901281  0.98458197  0.61262453    -0.89410
H506        H  0.21490145  0.53585959  0.67408315     0.18280
H507        H  0.18593534  0.60340586  0.53916182     0.18280
N508        N  0.24090753  0.65484892  0.59855608    -0.88440
H509        H  0.16716244  0.97532518  0.64440574     0.35650
H510        H  0.16786199  0.97343886  0.58332655     0.40750
H511        H  0.27187256  0.66624501  0.59648298     0.40370
H512        H  0.23430526  0.66690752  0.62894321     0.35260
C513        C  0.45332571  0.66922425  0.85974596    -0.26470
C514        C  0.41163182  0.64342026  0.85719476    -0.14540
C515        C  0.39305315  0.60971670  0.88892581     0.36090
C516        C  0.41682502  0.60253938  0.92137061    -0.25920
C517        C  0.45848249  0.62825581  0.92379099    -0.15160
C518        C  0.47716073  0.66171039  0.89177675     0.37170
N519        N  0.02002104  0.68794427  0.88955352    -0.89410
H520        H  0.46782444  0.69465484  0.83505290     0.18280
H521        H  0.40237575  0.57707320  0.94602463     0.18280
N522        N  0.35036739  0.58267033  0.89039294    -0.88440
H523        H  0.02919333  0.68674614  0.85388272     0.35650
H524        H  0.03509272  0.67791557  0.91188179     0.40750
H525        H  0.33520520  0.59256096  0.86819083     0.40370
H526        H  0.34066519  0.58304980  0.92601121     0.35260
C527        C  0.43885492  0.62979250  0.66102637    -0.26470
C528        C  0.40770454  0.63601926  0.64573851    -0.14540
C529        C  0.39975315  0.63608039  0.59541405     0.36090
C530        C  0.42374772  0.63054790  0.56117262    -0.25920
C531        C  0.45463039  0.62388264  0.57648117    -0.15160
C532        C  0.46218466  0.62327025  0.62686610     0.37170
N533        N  0.49371193  0.61642292  0.64301051    -0.89410
H534        H  0.44484071  0.62988536  0.69980400     0.18280
H535        H  0.41809283  0.63092675  0.52237835     0.18280
N536        N  0.36837365  0.64313310  0.57929151    -0.88440
H537        H  0.49516207  0.61665598  0.68122856     0.35650
H538        H  0.02094996  0.64044277  0.63067912     0.40750
H539        H  0.34097986  0.61870560  0.59045368     0.40370
H540        H  0.36754844  0.64384521  0.54107156     0.35260
C541        C  0.36472728  0.80552664  0.65813739    -0.26470
C542        C  0.36230589  0.76946128  0.64378896    -0.14540
C543        C  0.36536103  0.76250071  0.59343990     0.36090
C544        C  0.37128617  0.79206031  0.55912031    -0.25920
C545        C  0.37409643  0.82816817  0.57374255    -0.15160
C546        C  0.37070727  0.83501467  0.62363412     0.37170
N547        N  0.37325615  0.87184194  0.63892892    -0.89410
H548        H  0.36216706  0.81078118  0.69659030     0.18280
H549        H  0.37356916  0.78675438  0.52061910     0.18280
N550        N  0.36077317  0.72546379  0.57540120    -0.88440
H551        H  0.37042206  0.87229634  0.67694816     0.35650
H552        H  0.34873508  0.87264268  0.62391314     0.40750
H553        H  0.35271411  0.70405900  0.60296438     0.40370
H554        H  0.38854426  0.73151130  0.56149475     0.35260
C555        C  0.37090238  0.80816809  0.84038352    -0.26470
C556        C  0.35808228  0.76892886  0.85599889    -0.14540
C557        C  0.35264173  0.75983984  0.90658453     0.36090
C558        C  0.35958720  0.79012592  0.94001360    -0.25920
C559        C  0.37205618  0.82939662  0.92443776    -0.15160
C560        C  0.37722595  0.83832183  0.87365952     0.37170
N561        N  0.38659370  0.87666833  0.85407918    -0.89410
H562        H  0.37460696  0.81513317  0.80159103     0.18280
H563        H  0.35604201  0.78309135  0.97877286     0.18280
N564        N  0.34216770  0.72106263  0.92563984    -0.88440
H565        H  0.41612554  0.89083234  0.84109331     0.35650
H566        H  0.38463614  0.89513716  0.88038011     0.40750
H567        H  0.34209893  0.70221903  0.89834647     0.40370
H568        H  0.31306031  0.70803058  0.93983502     0.35260
O569        O  0.76955920  0.09671308  0.71117213    -0.85500
O570        O  0.84780497  0.12150283  0.68710919    -0.82550
C571        C  0.88521946  0.14413319  0.68304096     0.97960
O572        O  0.90422201  0.17291374  0.71236386    -0.82580
O573        O  0.87850569  0.22565195  0.68643307    -0.85230
C574        C  0.85555573  0.23994476  0.68239686     1.02490
O575        O  0.82770257  0.23090227  0.71310880    -0.77990
O576        O  0.77378201  0.15290002  0.68779807    -0.78180
C577        C  0.75953867  0.11575259  0.68211881     1.02440
O578        O  0.79081208  0.10516147  0.81304517    -0.85500
O579        O  0.86716315  0.12312413  0.78959435    -0.82560
C580        C  0.88945382  0.15107937  0.81870371     0.97980
O581        O  0.89488664  0.18593860  0.81313712    -0.82590
O582        O  0.87724169  0.24463084  0.78793976    -0.85200
C583        C  0.84994365  0.23851146  0.81830735     1.02450
O584        O  0.81540032  0.20797719  0.81463793    -0.78020
O585        O  0.75533321  0.13192317  0.78902387    -0.78160
C586        C  0.76095259  0.10976551  0.81811165     1.02410
Cr587      Cr  0.81989201  0.11547359  0.75020038     1.93740
Cr588      Cr  0.88482414  0.20444904  0.74994740     1.93210
Cr589      Cr  0.79590926  0.17992343  0.75116362     1.39100
O590        O  0.83353276  0.16654498  0.75053396    -1.23250
C591        C  0.87981413  0.36012094  0.96205764     0.02980
C592        C  0.91699709  0.39598966  0.96414451    -0.13170
C593        C  0.92375242  0.42560250  0.99878650     0.00480
C594        C  0.89334255  0.41854276  0.03247206    -0.11700
C595        C  0.85676748  0.38213639  0.03189537     0.02970
C596        C  0.85012299  0.35311030  0.99672293    -0.11120
H597        H  0.94033561  0.40118518  0.93806842     0.08560
H598        H  0.89841429  0.44090797  0.05983907     0.06090
H599        H  0.82161368  0.32520563  0.99606168     0.05940
C600        C  0.50011958  0.03700870  0.00010842     0.02980
C601        C  0.53618562  0.03639943  0.00053597    -0.13170
C602        C  0.53579230  0.99985368  0.00043520     0.00480
C603        C  0.49885880  0.46369424  0.00007691    -0.11700
C604        C  0.96253535  0.46385193  0.99970676     0.02970
C605        C  0.96339951  0.00063765  0.99970048    -0.11120
H606        H  0.56459729  0.06440972  0.00072931     0.08560
H607        H  0.99841642  0.43540223  0.99991438     0.06090
H608        H  0.93543178  0.50097650  0.99915762     0.05940
C609        C  0.98098026  0.12028436  0.96168637     0.02980
C610        C  0.97969060  0.08330874  0.96323050    -0.13170
C611        C  0.00087494  0.07568176  0.99938866     0.00480
C612        C  0.52302474  0.10524140  0.03451577    -0.11700
C613        C  0.52351058  0.14178594  0.03386177     0.02970
C614        C  0.00236740  0.14911113  0.99766213    -0.11120
H615        H  0.96284906  0.06080813  0.93571914     0.08560
H616        H  0.53936507  0.09963324  0.06270791     0.06090
H617        H  0.00260138  0.17730953  0.99744400     0.05940
C618        C  0.61715087  0.47670902  0.03567112     0.02980
C619        C  0.64632194  0.49888489  0.00001719    -0.13170
C620        C  0.63952275  0.02086592  0.96427685     0.00480
C621        C  0.60382470  0.02216364  0.96567691    -0.11700
C622        C  0.57391522  0.49947584  0.00031316     0.02970
C623        C  0.58046544  0.47624867  0.03458872    -0.11120
H624        H  0.67449342  0.49902857  0.99992240     0.08560
H625        H  0.59885974  0.03995815  0.93890568     0.06090
H626        H  0.55709029  0.45816745  0.06073087     0.05940
O627        O  0.63116385  0.25496444  0.20969930    -0.85500
O628        O  0.70787172  0.31340205  0.18576979    -0.82550
C629        C  0.73810701  0.34797168  0.18115746     0.97960
O630        O  0.74379927  0.37594363  0.20994700    -0.82580
O631        O  0.68504272  0.39322347  0.18617794    -0.85230
C632        C  0.65039720  0.38854105  0.18173643     1.02490
O633        O  0.62289869  0.36708790  0.21187878    -0.77990
O634        O  0.60375408  0.29043128  0.18713257    -0.78180
C635        C  0.60851698  0.26070456  0.18158473     1.02440
O636        O  0.65116549  0.27204476  0.31155880    -0.85500
O637        O  0.72934567  0.32530150  0.28726969    -0.82560
C638        C  0.73940377  0.35367930  0.31726238     0.97980
O639        O  0.72620748  0.37747822  0.31207220    -0.82590
O640        O  0.67307870  0.40278844  0.28786762    -0.85200
C641        C  0.64426806  0.38417405  0.31759820     1.02450
O642        O  0.62155431  0.34681384  0.31342998    -0.78020
O643        O  0.59513347  0.26840288  0.28846309    -0.78160
C644        C  0.61396824  0.25783372  0.31699102     1.02410
Cr645      Cr  0.67883770  0.29433786  0.24859747     1.93740
Cr646      Cr  0.70411625  0.38342481  0.24906746     1.93210
Cr647      Cr  0.61481691  0.31923055  0.25016084     1.39100
O648        O  0.66592066  0.33227905  0.24907469    -1.23250
C649        C  0.85742751  0.38177117  0.46770889     0.02980
C650        C  0.85090476  0.35246962  0.50306289    -0.13170
C651        C  0.88112845  0.35882086  0.53653822     0.00480
C652        C  0.91800797  0.39474648  0.53514543    -0.11700
C653        C  0.92501421  0.42420270  0.50025799     0.02970
C654        C  0.89498088  0.41730766  0.46623977    -0.11120
H655        H  0.82216306  0.32492244  0.50515617     0.08560
H656        H  0.94107826  0.39990311  0.56158304     0.06090
H657        H  0.90132142  0.43950568  0.43807592     0.05940
C658        C  0.53658183  0.99973074  0.49968142     0.02980
C659        C  0.00006782  0.46316475  0.49947984    -0.13170
C660        C  0.96341811  0.46261710  0.49993783     0.00480
C661        C  0.96341620  0.49893385  0.50072640    -0.11700
C662        C  0.49970041  0.03559777  0.50095870     0.02970
C663        C  0.53617613  0.03583558  0.50037270    -0.11120
H664        H  0.00017264  0.43514577  0.49906393     0.08560
H665        H  0.93516837  0.49866082  0.50124437     0.06090
H666        H  0.56427373  0.06416639  0.50047918     0.05940
C667        C  0.97841615  0.11716021  0.53921664     0.02980
C668        C  0.00139327  0.14718223  0.50486839    -0.13170
C669        C  0.52278930  0.14045972  0.46796611     0.00480
C670        C  0.52178283  0.10356267  0.46706941    -0.11700
C671        C  0.99962801  0.07375271  0.50188966     0.02970
C672        C  0.97761509  0.08051112  0.53756622    -0.11120
H673        H  0.00289139  0.17588478  0.50750117     0.08560
H674        H  0.53763917  0.09756323  0.43863152     0.06090
H675        H  0.96007962  0.05738659  0.56426737     0.05940
C676        C  0.61853419  0.47795217  0.46377294     0.02980
C677        C  0.64795228  0.50039708  0.49891871    -0.13170
C678        C  0.64144512  0.02326058  0.53359657     0.00480
C679        C  0.60525346  0.02353257  0.53318951    -0.11700
C680        C  0.57511967  0.50024099  0.49921325     0.02970
C681        C  0.58191807  0.47744885  0.46470467    -0.11120
H682        H  0.67606830  0.50042040  0.49890541     0.08560
H683        H  0.60015771  0.04104833  0.56017628     0.06090
H684        H  0.55905887  0.46004532  0.43776493     0.05940
C685        C  0.55387804  0.22178829  0.37061309    -0.26470
C686        C  0.59163332  0.22810774  0.35621726    -0.14540
C687        C  0.60677197  0.20549705  0.37893148     0.36090
C688        C  0.58437198  0.17817924  0.41628257    -0.25920
C689        C  0.54641182  0.17160349  0.43033047    -0.15160
C690        C  0.53105210  0.19357402  0.40672943     0.37170
N691        N  0.49169397  0.18645514  0.41795508    -0.89410
H692        H  0.54160331  0.23856765  0.35335967     0.18280
H693        H  0.59652180  0.16156077  0.43419858     0.18280
N694        N  0.64429415  0.20955371  0.36342745    -0.88440
H695        H  0.49439810  0.21350783  0.42955134     0.35650
H696        H  0.97471507  0.17771561  0.38580320     0.40750
H697        H  0.64054951  0.19899200  0.32748550     0.40370
H698        H  0.65129739  0.19121672  0.38437186     0.35260
C699        C  0.66457778  0.44855053  0.36029108    -0.26470
C700        C  0.63701170  0.40720717  0.35596455    -0.14540
C701        C  0.60308125  0.38949043  0.38731512     0.36090
C702        C  0.59819347  0.41335253  0.42235777    -0.25920
C703        C  0.62567762  0.45462075  0.42616578    -0.15160
C704        C  0.65903909  0.47251799  0.39404721     0.37170
N705        N  0.68683752  0.01501161  0.39258677    -0.89410
H706        H  0.69043880  0.46294337  0.33625215     0.18280
H707        H  0.57253949  0.39970421  0.44679948     0.18280
N708        N  0.57353382  0.34758928  0.38353642    -0.88440
H709        H  0.71411151  0.02012415  0.40705672     0.35650
H710        H  0.67715911  0.03116441  0.41337204     0.40750
H711        H  0.55868039  0.34342740  0.35016922     0.40370
H712        H  0.55164180  0.33917914  0.41075487     0.35260
C713        C  0.80374855  0.33666340  0.40941618    -0.26470
C714        C  0.82567177  0.37459574  0.43124415    -0.14540
C715        C  0.81741011  0.40503753  0.41731152     0.36090
C716        C  0.78914368  0.39741509  0.38023251    -0.25920
C717        C  0.76814672  0.35981283  0.35727759    -0.15260
C718        C  0.77498862  0.32876387  0.37303068     0.37170
N719        N  0.75243363  0.28907494  0.35280475    -0.89410
H720        H  0.80979119  0.31314006  0.41985114     0.18280
H721        H  0.78364851  0.42116077  0.36907001     0.18280
N722        N  0.83729978  0.44342161  0.44120321    -0.88440
H723        H  0.75742453  0.26888195  0.37279911     0.35650
H724        H  0.76373105  0.29001456  0.31774340     0.40750
H725        H  0.82844331  0.43878778  0.47792445     0.40370
H726        H  0.82797117  0.46242611  0.42656699     0.35260
C727        C  0.64263461  0.43101092  0.05914824    -0.26470
C728        C  0.62515622  0.45377445  0.07342842    -0.14540
C729        C  0.61632566  0.45486014  0.12342627     0.36090
C730        C  0.62430411  0.43252869  0.15751016    -0.25920
C731        C  0.64211117  0.41016863  0.14323256    -0.15160
C732        C  0.65113020  0.40909740  0.09317578     0.37170
N733        N  0.66782331  0.38557770  0.07511773    -0.89410
H734        H  0.64911877  0.42956667  0.02085359     0.18280
H735        H  0.61757600  0.43342775  0.19586328     0.18280
N736        N  0.60034355  0.47942681  0.13969988    -0.88440
H737        H  0.64735599  0.36486474  0.05015544     0.35650
H738        H  0.67080484  0.36853996  0.10261597     0.40750
H739        H  0.62209860  0.50933290  0.13296350     0.40370
H740        H  0.59545392  0.47669383  0.17750669     0.35260
C741        C  0.60526885  0.23287114  0.09911531    -0.26470
C742        C  0.58615184  0.23103492  0.14346556    -0.14540
C743        C  0.54661161  0.19970749  0.15212248     0.36090
C744        C  0.52663160  0.17061584  0.11576603    -0.25920
C745        C  0.54570441  0.17244516  0.07137078    -0.15160
C746        C  0.58519987  0.20389031  0.06262990     0.37170
N747        N  0.60480619  0.20583991  0.01709594    -0.89410
H748        H  0.63584479  0.25692151  0.09306833     0.18280
H749        H  0.49615971  0.14641488  0.12196591     0.18280
N750        N  0.52707222  0.19763500  0.19776752    -0.88440
H751        H  0.63403905  0.23044609  0.01683420     0.35650
H752        H  0.58926764  0.21087257  0.98925574     0.40750
H753        H  0.54275639  0.19271193  0.22553210     0.40370
H754        H  0.49788460  0.17295373  0.19811008     0.35260
C755        C  0.82023111  0.34643324  0.10661965    -0.26470
C756        C  0.82577933  0.37363810  0.06917522    -0.14540
C757        C  0.80206800  0.39211008  0.06847771     0.36090
C758        C  0.77368665  0.38307390  0.10566489    -0.25920
C759        C  0.76811804  0.35579892  0.14305947    -0.15160
C760        C  0.79188650  0.33738332  0.14376354     0.37170
N761        N  0.78945235  0.31082077  0.18232840    -0.89410
H762        H  0.83866255  0.33257317  0.10742785     0.18280
H763        H  0.75543850  0.39713932  0.10504732     0.18280
N764        N  0.80508066  0.41915368  0.03024401    -0.88440
H765        H  0.77886727  0.28244483  0.16700648     0.35650
H766        H  0.76918369  0.30771544  0.20964032     0.40750
H767        H  0.82577592  0.42248970  0.00337390     0.40370
H768        H  0.81560887  0.44736860  0.04601486     0.35260
C769        C  0.69137289  0.06092409  0.84141271    -0.26470
C770        C  0.73088894  0.08738287  0.85633216    -0.14540
C771        C  0.74033665  0.09161050  0.90684076     0.36090
C772        C  0.70976038  0.06978516  0.94089601    -0.25920
C773        C  0.67023177  0.04293731  0.92603033    -0.15160
C774        C  0.66117610  0.03785595  0.87532674     0.37170
N775        N  0.62262891  0.00829856  0.85655355    -0.89410
H776        H  0.68419739  0.05704853  0.80270789     0.18280
H777        H  0.71697409  0.07400267  0.97956697     0.18280
N778        N  0.77991665  0.11860429  0.92522160    -0.88440
H779        H  0.60864084  0.02338529  0.84256584     0.35650
H780        H  0.60409240  0.98846485  0.88353319     0.40750
H781        H  0.80040705  0.13326907  0.89706842     0.40370
H782        H  0.78972523  0.10146973  0.94386947     0.35260
C783        C  0.70910898  0.05099034  0.64454777    -0.26470
C784        C  0.72973516  0.09324237  0.64283189    -0.14540
C785        C  0.72110760  0.11215365  0.60387718     0.36090
C786        C  0.69248465  0.08872008  0.56860557    -0.25920
C787        C  0.67228728  0.04675139  0.57069475    -0.15160
C788        C  0.68060217  0.02762503  0.60897965     0.37170
N789        N  0.65899726  0.48457944  0.61262595    -0.89410
H790        H  0.71492010  0.03586262  0.67407838     0.18280
H791        H  0.68594849  0.10340784  0.53916083     0.18280
N792        N  0.74092263  0.15485135  0.59855280    -0.88440
H793        H  0.66714595  0.47532235  0.64440767     0.35650
H794        H  0.66784766  0.47343696  0.58332851     0.40750
H795        H  0.77188760  0.16624769  0.59647729     0.40370
H796        H  0.73432167  0.16690990  0.62894108     0.35260
C797        C  0.95335125  0.16922635  0.85973250    -0.26470
C798        C  0.91165811  0.14341930  0.85717555    -0.14540
C799        C  0.89308101  0.10970893  0.88889687     0.36090
C800        C  0.91685347  0.10252911  0.92133825    -0.25920
C801        C  0.95850998  0.12824957  0.92376561    -0.15160
C802        C  0.97718682  0.16171020  0.89176002     0.37170
N803        N  0.52004659  0.18794876  0.88954292    -0.89410
H804        H  0.96784926  0.19466183  0.83504656     0.18280
H805        H  0.90240491  0.07705843  0.94598570     0.18280
N806        N  0.85039591  0.08265814  0.89035843    -0.88440
H807        H  0.52922222  0.18675953  0.85387102     0.35650
H808        H  0.53511901  0.17791776  0.91186630     0.40750
H809        H  0.83523247  0.09255060  0.86816154     0.40370
H810        H  0.84069074  0.08302889  0.92597767     0.35260
C811        C  0.93887389  0.12980031  0.66101443    -0.26470
C812        C  0.90772461  0.13602817  0.64572511    -0.14540
C813        C  0.89977088  0.13608538  0.59540099     0.36090
C814        C  0.92376228  0.13054767  0.56116076    -0.25920
C815        C  0.95464393  0.12388144  0.57647073    -0.15160
C816        C  0.96220076  0.12327330  0.62685537     0.37170
N817        N  0.99372772  0.11642574  0.64300048    -0.89410
H818        H  0.94486082  0.12989577  0.69979212     0.18280
H819        H  0.91810614  0.13092376  0.52236639     0.18280
N820        N  0.86839249  0.14313952  0.57927749    -0.88440
H821        H  0.99517979  0.11666237  0.68121849     0.35650
H822        H  0.52096563  0.14044367  0.63066565     0.40750
H823        H  0.84099828  0.11871396  0.59044218     0.40370
H824        H  0.86756601  0.14384888  0.54105746     0.35260
C825        C  0.86473365  0.30552928  0.65813027    -0.26470
C826        C  0.86231558  0.26946527  0.64378254    -0.14540
C827        C  0.86536445  0.26250242  0.59343239     0.36090
C828        C  0.87127963  0.29205819  0.55911131    -0.25920
C829        C  0.87408679  0.32816492  0.57373293    -0.15160
C830        C  0.87070447  0.33501369  0.62362581     0.37170
N831        N  0.87325157  0.37184009  0.63892096    -0.89410
H832        H  0.86217794  0.31078567  0.69658375     0.18280
H833        H  0.87355871  0.28675064  0.52060967     0.18280
N834        N  0.86078059  0.22546691  0.57539445    -0.88440
H835        H  0.87042341  0.37229676  0.67694091     0.35650
H836        H  0.84872655  0.37263685  0.62391130     0.40750
H837        H  0.85273125  0.20406542  0.60295982     0.40370
H838        H  0.88855067  0.23151859  0.56147964     0.35260
C839        C  0.87090401  0.30816677  0.84036869    -0.26470
C840        C  0.85809134  0.26893050  0.85598975    -0.14540
C841        C  0.85264471  0.25984367  0.90657569     0.36090
C842        C  0.85957715  0.29012901  0.93999944    -0.25920
C843        C  0.87203858  0.32939659  0.92441768    -0.15160
C844        C  0.87721449  0.33831955  0.87363914     0.37170
N845        N  0.88657559  0.37666229  0.85405257    -0.89410
H846        H  0.87461209  0.31512966  0.80157566     0.18280
H847        H  0.85602775  0.28309661  0.97875929     0.18280
N848        N  0.84217676  0.22106974  0.92563689    -0.88440
H849        H  0.91610856  0.39083071  0.84107005     0.35650
H850        H  0.88461193  0.39513047  0.88034928     0.40750
H851        H  0.84211676  0.20222724  0.89834797     0.40370
H852        H  0.81306690  0.20803243  0.93982545     0.35260
O853        O  0.76953780  0.59670958  0.71118058    -0.85500
O854        O  0.84778382  0.62149316  0.68712453    -0.82550
C855        C  0.88519851  0.64412314  0.68305582     0.97960
O856        O  0.90420075  0.67290414  0.71237807    -0.82580
O857        O  0.87848630  0.72564175  0.68643855    -0.85230
C858        C  0.85554004  0.73993860  0.68240170     1.02490
O859        O  0.82768698  0.73089935  0.71311272    -0.77990
O860        O  0.77376208  0.65289716  0.68780500    -0.78180
C861        C  0.75951888  0.61574961  0.68212585     1.02440
O862        O  0.79078380  0.60515870  0.81305630    -0.85500
O863        O  0.86713617  0.62311908  0.78961418    -0.82560
C864        C  0.88942806  0.65107691  0.81872009     0.97980
O865        O  0.89486327  0.68593630  0.81314781    -0.82590
O866        O  0.87722338  0.74462848  0.78794178    -0.85200
C867        C  0.84992773  0.73851082  0.81831210     1.02450
O868        O  0.81538277  0.70797843  0.81464341    -0.78020
O869        O  0.75531028  0.63192497  0.78903044    -0.78160
C870        C  0.76092559  0.60976549  0.81811962     1.02410
Cr871      Cr  0.81986781  0.61546835  0.75021381     1.93740
Cr872      Cr  0.88480319  0.70444273  0.74995534     1.93210
Cr873      Cr  0.79589005  0.67992250  0.75116966     1.39100
O874        O  0.83351105  0.66654048  0.75054304    -1.23250
C875        C  0.87984237  0.86012058  0.96208310     0.02980
C876        C  0.91702728  0.89598769  0.96416471    -0.13170
C877        C  0.92378913  0.92560194  0.99880778     0.00480
C878        C  0.89338496  0.91854420  0.03250175    -0.11700
C879        C  0.85680841  0.88213888  0.03193080     0.02970
C880        C  0.85015711  0.85311226  0.99675614    -0.11120
H881        H  0.94036134  0.90118194  0.93808220     0.08560
H882        H  0.89846132  0.94091120  0.05986824     0.06090
H883        H  0.82164581  0.82520962  0.99609756     0.05940
C884        C  0.50008598  0.53700789  0.00011905     0.02980
C885        C  0.53615094  0.53639688  0.00054724    -0.13170
C886        C  0.53575595  0.49985056  0.00043702     0.00480
C887        C  0.49889562  0.96369643  0.00008488    -0.11700
C888        C  0.96257141  0.96385246  0.99971676     0.02970
C889        C  0.96336509  0.50063787  0.99970032    -0.11120
H890        H  0.56456331  0.56440637  0.00074710     0.08560
H891        H  0.99845405  0.93540478  0.99992896     0.06090
H892        H  0.93546543  0.00097482  0.99915934     0.05940
C893        C  0.98095321  0.62028929  0.96170879     0.02980
C894        C  0.97965883  0.58331166  0.96325100    -0.13170
C895        C  0.00084383  0.57568201  0.99940498     0.00480
C896        C  0.52299944  0.60524130  0.03452990    -0.11700
C897        C  0.52349084  0.64178853  0.03387720     0.02970
C898        C  0.00234656  0.64911642  0.99768173    -0.11120
H899        H  0.96281354  0.56081172  0.93574042     0.08560
H900        H  0.53934094  0.59963133  0.06271870     0.06090
H901        H  0.00258502  0.67731705  0.99746410     0.05940
C902        C  0.61718723  0.97671266  0.03567281     0.02980
C903        C  0.64635784  0.99888574  0.00001759    -0.13170
C904        C  0.63948655  0.52086579  0.96427759     0.00480
C905        C  0.60378793  0.52216219  0.96567844    -0.11700
C906        C  0.57395228  0.99947978  0.00031307     0.02970
C907        C  0.58050277  0.97625421  0.03459090    -0.11120
H908        H  0.67452842  0.99902759  0.99992265     0.08560
H909        H  0.59882289  0.53995799  0.93890922     0.06090
H910        H  0.55712846  0.95817521  0.06073504     0.05940
O911        O  0.63117930  0.75496314  0.20970100    -0.85500
O912        O  0.70789249  0.81339900  0.18578071    -0.82550
C913        C  0.73813008  0.84796803  0.18117356     0.97960
O914        O  0.74382001  0.87593883  0.20996343    -0.82580
O915        O  0.68506570  0.89321975  0.18618518    -0.85230
C916        C  0.65042161  0.88854054  0.18174254     1.02490
O917        O  0.62292199  0.86709008  0.21188518    -0.77990
O918        O  0.60377011  0.79043217  0.18714025    -0.78180
C919        C  0.60853101  0.76070454  0.18159028     1.02440
O920        O  0.65117418  0.77203554  0.31156442    -0.85500
O921        O  0.72935648  0.82529287  0.28728380    -0.82560
C922        C  0.73941526  0.85367193  0.31727491     0.97980
O923        O  0.72622019  0.87747167  0.31208361    -0.82590
O924        O  0.67309720  0.90278725  0.28787255    -0.85200
C925        C  0.64428686  0.88417398  0.31760371     1.02450
O926        O  0.62157359  0.84681374  0.31343731    -0.78020
O927        O  0.59514589  0.76840216  0.28846981    -0.78160
C928        C  0.61397770  0.75782978  0.31699814     1.02410
Cr929      Cr  0.67885168  0.79433223  0.24860533     1.93740
Cr930      Cr  0.70413464  0.88342061  0.24907721     1.93210
Cr931      Cr  0.61483475  0.81923086  0.25016799     1.39100
O932        O  0.66593735  0.83227544  0.24908268    -1.23250
C933        C  0.85744154  0.88177202  0.46771642     0.02980
C934        C  0.85091742  0.85247273  0.50307326    -0.13170
C935        C  0.88114091  0.85882413  0.53654803     0.00480
C936        C  0.91802175  0.89474820  0.53515301    -0.11700
C937        C  0.92502894  0.92420266  0.50026242     0.02970
C938        C  0.89499556  0.91730713  0.46624411    -0.11120
H939        H  0.82217482  0.82492665  0.50516855     0.08560
H940        H  0.94109194  0.89990492  0.56159080     0.06090
H941        H  0.90133621  0.93950364  0.43807813     0.05940
C942        C  0.53656722  0.49973074  0.49968361     0.02980
C943        C  0.00008270  0.96316436  0.49948196    -0.13170
C944        C  0.96343292  0.96261648  0.49993955     0.00480
C945        C  0.96343062  0.99893293  0.50072371    -0.11700
C946        C  0.49968639  0.53559863  0.50096563     0.02970
C947        C  0.53616188  0.53583573  0.50037964    -0.11120
H948        H  0.00018783  0.93514552  0.49906935     0.08560
H949        H  0.93518265  0.99865964  0.50124172     0.06090
H950        H  0.56425972  0.56416629  0.50048916     0.05940
C951        C  0.97840386  0.61716274  0.53922608     0.02980
C952        C  0.00138490  0.64718656  0.50488045    -0.13170
C953        C  0.52278395  0.64046505  0.46798032     0.00480
C954        C  0.52177440  0.60356649  0.46708221    -0.11700
C955        C  0.99961532  0.57375457  0.50189858     0.02970
C956        C  0.97760082  0.58051251  0.53757347    -0.11120
H957        H  0.00288424  0.67588960  0.50751416     0.08560
H958        H  0.53763198  0.59756733  0.43864569     0.06090
H959        H  0.96006271  0.55738670  0.56427209     0.05940
C960        C  0.61854984  0.97795401  0.46377173     0.02980
C961        C  0.64796767  0.00039940  0.49891748    -0.13170
C962        C  0.64143038  0.52325863  0.53359796     0.00480
C963        C  0.60523903  0.52353129  0.53319120    -0.11700
C964        C  0.57513441  0.00024167  0.49921156     0.02970
C965        C  0.58193330  0.97744979  0.46470327    -0.11120
H966        H  0.67608396  0.00042326  0.49890444     0.08560
H967        H  0.60014378  0.54104715  0.56017833     0.06090
H968        H  0.55907413  0.96004573  0.43776373     0.05940
C969        C  0.55388653  0.72179402  0.37062275    -0.26470
C970        C  0.59163998  0.72810738  0.35622804    -0.14540
C971        C  0.60677433  0.70549508  0.37894807     0.36090
C972        C  0.58437151  0.67818090  0.41630153    -0.25920
C973        C  0.54641232  0.67160995  0.43034687    -0.15160
C974        C  0.53105780  0.69358350  0.40674182     0.37170
N975        N  0.49170173  0.68647107  0.41796564    -0.89410
H976        H  0.54161513  0.73857512  0.35336600     0.18280
H977        H  0.59651798  0.66156068  0.43422074     0.18280
N978        N  0.64429491  0.70954615  0.36344748    -0.88440
H979        H  0.49441001  0.71352629  0.42955847     0.35650
H980        H  0.97472288  0.67773139  0.38581368     0.40750
H981        H  0.64054973  0.69898133  0.32750699     0.40370
H982        H  0.65129511  0.69120882  0.38439589     0.35260
C983        C  0.66459566  0.94855134  0.36029369    -0.26470
C984        C  0.63702972  0.90720794  0.35596786    -0.14540
C985        C  0.60309822  0.88949171  0.38731678     0.36090
C986        C  0.59820959  0.91335423  0.42235781    -0.25920
C987        C  0.62569375  0.95462242  0.42616546    -0.15160
C988        C  0.65905598  0.97251929  0.39404800     0.37170
N989        N  0.68682084  0.51501028  0.39258665    -0.89410
H990        H  0.69045729  0.96294371  0.33625564     0.18280
H991        H  0.57255499  0.89970623  0.44679858     0.18280
N992        N  0.57355052  0.84759063  0.38353794    -0.88440
H993        H  0.71409519  0.52012234  0.40705481     0.35650
H994        H  0.67714330  0.53116291  0.41337373     0.40750
H995        H  0.55869832  0.84342867  0.35016978     0.40370
H996        H  0.55165756  0.83918094  0.41075508     0.35260
C997        C  0.80376345  0.83666147  0.40942667    -0.26470
C998        C  0.82568592  0.87459479  0.43125222    -0.14540
C999        C  0.81742300  0.90503531  0.41731894     0.36090
C1000       C  0.78915527  0.89741052  0.38024141    -0.25920
C1001       C  0.76815865  0.85980713  0.35728905    -0.15260
C1002       C  0.77500223  0.82875954  0.37304263     0.37170
N1003       N  0.75244797  0.78906987  0.35281856    -0.89410
H1004       H  0.80980760  0.81313931  0.41986260     0.18280
H1005       H  0.78365896  0.92115526  0.36907796     0.18280
N1006       N  0.83731288  0.94342037  0.44120834    -0.88440
H1007       H  0.75744033  0.76887815  0.37281361     0.35650
H1008       H  0.76374482  0.79000888  0.31775702     0.40750
H1009       H  0.82845775  0.93878785  0.47793006     0.40370
H1010       H  0.82798309  0.96242379  0.42657163     0.35260
C1011       C  0.64266283  0.93100840  0.05915178    -0.26470
C1012       C  0.62519143  0.95377846  0.07343118    -0.14540
C1013       C  0.61636539  0.95487013  0.12342922     0.36090
C1014       C  0.62434016  0.93253708  0.15751451    -0.25920
C1015       C  0.64213928  0.91016962  0.14323764    -0.15160
C1016       C  0.65115479  0.90909314  0.09318075     0.37170
N1017       N  0.66784061  0.88556646  0.07512432    -0.89410
H1018       H  0.64914396  0.92956036  0.02085692     0.18280
H1019       H  0.61761529  0.93344037  0.19586788     0.18280
N1020       N  0.60039135  0.97944419  0.13970118    -0.88440
H1021       H  0.64736956  0.86485317  0.05016527     0.35650
H1022       H  0.67082086  0.86852917  0.10262427     0.40750
H1023       H  0.62214999  0.00934830  0.13296068     0.40370
H1024       H  0.59550435  0.97671516  0.17750853     0.35260
C1025       C  0.60526916  0.73286567  0.09912049    -0.26470
C1026       C  0.58615909  0.73103440  0.14347458    -0.14540
C1027       C  0.54661632  0.69971414  0.15213643     0.36090
C1028       C  0.52662710  0.67062379  0.11578156    -0.25920
C1029       C  0.54569302  0.67244788  0.07138268    -0.15160
C1030       C  0.58519074  0.70388638  0.06263636     0.37170
N1031       N  0.60478947  0.70583086  0.01709801    -0.89410
H1032       H  0.63584661  0.75691132  0.09306915     0.18280
H1033       H  0.49615348  0.64642784  0.12198555     0.18280
N1034       N  0.52708365  0.69764770  0.19778485    -0.88440
H1035       H  0.63402495  0.73043254  0.01683222     0.35650
H1036       H  0.58925101  0.71086829  0.98926207     0.40750
H1037       H  0.54276670  0.69271954  0.22554621     0.40370
H1038       H  0.49789306  0.67297146  0.19813089     0.35260
C1039       C  0.82026654  0.84643568  0.10665368    -0.26470
C1040       C  0.82582129  0.87364440  0.06921123    -0.14540
C1041       C  0.80211087  0.89211737  0.06850987     0.36090
C1042       C  0.77372312  0.88307731  0.10569010    -0.25920
C1043       C  0.76814655  0.85579713  0.14308145    -0.15160
C1044       C  0.79191529  0.83738178  0.14379067     0.37170
N1045       N  0.78947414  0.81081492  0.18235382    -0.89410
H1046       H  0.83869666  0.83257422  0.10746462     0.18280
H1047       H  0.75547579  0.89714359  0.10506918     0.18280
N1048       N  0.80513012  0.91916531  0.03027825    -0.88440
H1049       H  0.77889249  0.78244087  0.16702792     0.35650
H1050       H  0.76919984  0.80770595  0.20965994     0.40750
H1051       H  0.82582971  0.92250437  0.00341271     0.40370
H1052       H  0.81565591  0.94737850  0.04605299     0.35260
C1053       C  0.69134241  0.56092883  0.84141629    -0.26470
C1054       C  0.73085866  0.58738445  0.85633834    -0.14540
C1055       C  0.74030315  0.59161128  0.90684789     0.36090
C1056       C  0.70972467  0.56978660  0.94090089    -0.25920
C1057       C  0.67019653  0.54294004  0.92603261    -0.15160
C1058       C  0.66114306  0.53786148  0.87532825     0.37170
N1059       N  0.62259568  0.50830736  0.85655199    -0.89410
H1060       H  0.68416873  0.55705471  0.80271097     0.18280
H1061       H  0.71693660  0.57400294  0.97957236     0.18280
N1062       N  0.77988227  0.61860355  0.92523201    -0.88440
H1063       H  0.60861035  0.52339695  0.84256483     0.35650
H1064       H  0.60405700  0.48847294  0.88352965     0.40750
H1065       H  0.80037474  0.63326638  0.89708023     0.40370
H1066       H  0.78968784  0.60146808  0.94388359     0.35260
C1067       C  0.70909155  0.55098757  0.64455177    -0.26470
C1068       C  0.72971749  0.59323965  0.64283671    -0.14540
C1069       C  0.72109193  0.61215119  0.60388046     0.36090
C1070       C  0.69247038  0.58871787  0.56860733    -0.25920
C1071       C  0.67227266  0.54674914  0.57069628    -0.15160
C1072       C  0.68058636  0.52762251  0.60898196     0.37170
N1073       N  0.65901280  0.98458200  0.61262453    -0.89410
H1074       H  0.71490147  0.53585959  0.67408315     0.18280
H1075       H  0.68593534  0.60340586  0.53916184     0.18280
N1076       N  0.74090754  0.65484891  0.59855609    -0.88440
H1077       H  0.66716242  0.97532521  0.64440575     0.35650
H1078       H  0.66786198  0.97343889  0.58332656     0.40750
H1079       H  0.77187257  0.66624501  0.59648299     0.40370
H1080       H  0.73430527  0.66690751  0.62894322     0.35260
C1081       C  0.95332571  0.66922425  0.85974598    -0.26470
C1082       C  0.91163183  0.64342026  0.85719477    -0.14540
C1083       C  0.89305316  0.60971670  0.88892582     0.36090
C1084       C  0.91682503  0.60253938  0.92137063    -0.25920
C1085       C  0.95848250  0.62825581  0.92379101    -0.15160
C1086       C  0.97716074  0.66171039  0.89177677     0.37170
N1087       N  0.52002103  0.68794426  0.88955349    -0.89410
H1088       H  0.96782445  0.69465484  0.83505292     0.18280
H1089       H  0.90237576  0.57707320  0.94602465     0.18280
N1090       N  0.85036740  0.58267033  0.89039295    -0.88440
H1091       H  0.52919331  0.68674613  0.85388269     0.35650
H1092       H  0.53509271  0.67791556  0.91188176     0.40750
H1093       H  0.83520521  0.59256095  0.86819083     0.40370
H1094       H  0.84066520  0.58304980  0.92601121     0.35260
C1095       C  0.93885494  0.62979251  0.66102637    -0.26470
C1096       C  0.90770456  0.63601926  0.64573851    -0.14540
C1097       C  0.89975316  0.63608039  0.59541406     0.36090
C1098       C  0.92374772  0.63054789  0.56117262    -0.25920
C1099       C  0.95463039  0.62388263  0.57648117    -0.15160
C1100       C  0.96218467  0.62327026  0.62686609     0.37170
N1101       N  0.99371195  0.61642293  0.64301050    -0.89410
H1102       H  0.94484074  0.62988537  0.69980400     0.18280
H1103       H  0.91809283  0.63092674  0.52237835     0.18280
N1104       N  0.86837365  0.64313309  0.57929153    -0.88440
H1105       H  0.99516209  0.61665600  0.68122855     0.35650
H1106       H  0.52094994  0.64044277  0.63067914     0.40750
H1107       H  0.84097987  0.61870560  0.59045370     0.40370
H1108       H  0.86754844  0.64384520  0.54107157     0.35260
C1109       C  0.86472730  0.80552663  0.65813739    -0.26470
C1110       C  0.86230590  0.76946127  0.64378896    -0.14540
C1111       C  0.86536104  0.76250069  0.59343990     0.36090
C1112       C  0.87128617  0.79206029  0.55912031    -0.25920
C1113       C  0.87409643  0.82816815  0.57374254    -0.15160
C1114       C  0.87070728  0.83501466  0.62363412     0.37170
N1115       N  0.87325617  0.87184193  0.63892892    -0.89410
H1116       H  0.86216708  0.81078118  0.69659030     0.18280
H1117       H  0.87356916  0.78675436  0.52061910     0.18280
N1118       N  0.86077318  0.72546378  0.57540121    -0.88440
H1119       H  0.87042208  0.87229634  0.67694816     0.35650
H1120       H  0.84873510  0.87264267  0.62391314     0.40750
H1121       H  0.85271413  0.70405899  0.60296439     0.40370
H1122       H  0.88854427  0.73151129  0.56149475     0.35260
C1123       C  0.87090240  0.80816809  0.84038353    -0.26470
C1124       C  0.85808229  0.76892886  0.85599890    -0.14540
C1125       C  0.85264172  0.75983984  0.90658454     0.36090
C1126       C  0.85958720  0.79012593  0.94001360    -0.25920
C1127       C  0.87205619  0.82939662  0.92443776    -0.15160
C1128       C  0.87722597  0.83832184  0.87365952     0.37170
N1129       N  0.88659373  0.87666833  0.85407918    -0.89410
H1130       H  0.87460699  0.81513317  0.80159103     0.18280
H1131       H  0.85604200  0.78309135  0.97877286     0.18280
N1132       N  0.84216769  0.72106262  0.92563986    -0.88440
H1133       H  0.91612557  0.89083234  0.84109331     0.35650
H1134       H  0.88463617  0.89513717  0.88038010     0.40750
H1135       H  0.84209892  0.70221902  0.89834649     0.40370
H1136       H  0.81306029  0.70803058  0.93983503     0.35260
loop_ 
_geom_bond_atom_site_label_1 
_geom_bond_atom_site_label_2 
_geom_bond_distance 
_geom_bond_site_symmetry_2 
_ccdc_geom_bond_type 
O1          Cr19   2.004       .  S
O1            C9   1.267       .  A
O2          Cr19   1.982       .  S
O2            C3   1.259       .  A
C3            O4   1.263       .  A
C3          C244   1.471       .  S
O4          Cr20   2.005       .  S
O5          Cr20   1.985       .  S
O5            C6   1.262       .  A
C6            O7   1.265       .  A
C6          C258   1.475       .  S
O7          Cr21   2.004       .  S
O8          Cr21   1.981       .  S
O8            C9   1.261       .  A
C9          C216   1.492       .  S
O10         Cr19   1.977       .  S
O10          C18   1.258       .  A
O11         Cr19   2.007       .  S
O11          C12   1.267       .  A
C12          O13   1.262       .  A
C12         C230   1.477       .  S
O13         Cr20   1.980       .  S
O14         Cr20   2.008       .  S
O14          C15   1.265       .  A
C15          O16   1.261       .  A
C15         C272   1.473       .  S
O16         Cr21   1.983       .  S
O17         Cr21   2.005       .  S
O17          C18   1.263       .  A
C18         C202   1.472       .  S
Cr19         O22   1.766       .  S
Cr20         O22   1.771       .  S
Cr21         O22   1.769       .  S
C23         C275   1.483       .  S
C23          C24   1.405       .  A
C23          C28   1.403       .  A
C24          C25   1.405       .  A
C24          H29   1.084       .  S
C25          C36   1.480       .  S
C25          C26   1.404   1_556  A
C26          C27   1.402       .  A
C26          H30   1.084       .  S
C27         C188   1.475       .  S
C27          C28   1.400   1_554  A
C28          H31   1.084       .  S
C32         C611   1.479   1_554  S
C32          C33   1.403       .  A
C32         C605   1.404   1_454  A
C33          C34   1.404   1_545  A
C33          H38   1.084       .  S
C34         C338   1.479       .  S
C34         C319   1.404   1_455  A
C35         C318   1.404   1_655  A
C35         C604   1.404   1_554  A
C35         H607   1.084   1_554  S
C36         C603   1.404   1_556  A
C36         C321   1.405       .  A
C37         C600   1.404   1_556  A
C37         C320   1.405   1_545  A
C37         H324   1.084       .  S
H39         C603   1.084   1_556  S
H40         C321   1.084       .  S
C41         C233   1.479       .  S
C41          C42   1.404       .  A
C41          C46   1.401       .  A
C42          C43   1.405       .  A
C42          H47   1.084       .  S
C43         C600   1.479   1_556  S
C43         C612   1.405   1_556  A
C44          C45   1.402       .  A
C44         C611   1.405   1_554  A
C44          H48   1.084       .  S
C45         C177   1.472       .  S
C45         C614   1.398   1_554  A
C46         C613   1.398   1_556  A
C46          H49   1.084       .  S
C50         C160   1.489       .  S
C50          C51   1.404       .  A
C50          C55   1.406       .  A
C51         C336   1.402   1_554  A
C51          H56   1.084   1_554  S
C52         C205   1.483       .  S
C52          C53   1.403       .  A
C52         C335   1.402   1_546  A
C53         C338   1.403   1_546  A
C53          H57   1.084       .  S
C54         C318   1.479       .  S
C54          C55   1.404       .  A
C54         C337   1.403   1_554  A
C55          H58   1.083       .  S
O59         Cr77   2.002       .  S
O59          C67   1.264       .  A
O60         Cr77   1.976       .  S
O60          C61   1.260       .  A
C61          O62   1.264       .  A
C61         C191   1.470       .  S
O62         Cr78   2.003       .  S
O63         Cr78   1.979       .  S
O63          C64   1.261       .  A
C64          O65   1.265       .  A
C64         C163   1.474       .  S
O65         Cr79   2.005       .  S
O66         Cr79   1.978       .  S
O66          C67   1.260       .  A
C67         C174   1.466       .  S
O68         Cr77   1.976       .  S
O68          C76   1.260       .  A
O69         Cr77   1.999       .  S
O69          C70   1.264       .  A
C70          O71   1.263       .  A
C70         C149   1.489       .  S
O71         Cr78   1.985       .  S
O72         Cr78   2.005       .  S
O72          C73   1.266       .  A
C73          O74   1.260       .  A
C73         C132   1.491       .  S
O74         Cr79   1.979       .  S
O75         Cr79   2.003       .  S
O75          C76   1.265       .  A
C76         C118   1.485       .  S
Cr77         O80   1.769       .  S
Cr78         O80   1.771       .  S
Cr79         O80   1.771       .  S
C81         C146   1.493       .  S
C81          C82   1.409       .  A
C81          C86   1.406       .  A
C82          C83   1.403       .  A
C82          H87   1.083       .  S
C83         C261   1.476       .  S
C83          C84   1.399       .  A
C84          C85   1.401       .  A
C84          H88   1.084       .  S
C85          C92   1.476       .  S
C85          C86   1.403       .  A
C86          H89   1.083       .  S
C90         C396   1.477   1_565  S
C90          C95   1.402   1_565  A
C90         C943   1.404       .  A
C91          C92   1.403       .  A
C91         C942   1.404       .  A
C91          H96   1.084       .  S
C92          C93   1.403       .  A
C93         C946   1.401       .  A
C93          H97   1.084       .  S
C94         C671   1.475       .  S
C94          C95   1.402   1_655  A
C94         C945   1.401   1_545  A
C95          H98   1.084       .  S
C99         C247   1.478       .  S
C99         C100   1.403       .  A
C99         C104   1.401       .  A
C100        C669   1.407       .  A
C100        H105   1.083       .  S
C101        C121   1.491       .  S
C101        C102   1.406       .  A
C101        C668   1.407       .  A
C102        C671   1.401   1_455  A
C102        H106   1.084       .  S
C103        C662   1.475       .  S
C103        C104   1.401       .  A
C103        C670   1.401       .  A
C104        H107   1.084       .  S
C108        C135   1.482       .  S
C108        C109   1.404       .  A
C108        C113   1.403       .  A
C109        C394   1.402       .  A
C109        H114   1.084       .  S
C110        C219   1.477       .  S
C110        C111   1.401       .  A
C110        C393   1.402       .  A
C111        C396   1.404       .  A
C111        H115   1.084       .  S
C112        C374   1.477       .  S
C112        C113   1.403       .  A
C112        C395   1.404       .  A
C113        H116   1.084       .  S
C117        C118   1.405       .  A
C117        C122   1.401       .  A
C117        H124   1.084       .  S
C118        C119   1.415       .  A
C119        C120   1.406       .  A
C119        N126   1.438       .  S
C120        C121   1.407       .  A
C120        H125   1.083       .  S
C121        C122   1.411       .  A
C122        N123   1.432   1_455  S
N123        H127   1.046       .  S
N123        H696   1.045       .  S
N126        H129   1.046       .  S
N126        H130   1.046       .  S
H128        N691   1.045       .  S
C131        C132   1.408       .  A
C131        C136   1.398       .  A
C131        H138   1.084       .  S
C132        C133   1.417       .  A
C133        C134   1.407       .  A
C133        N140   1.438       .  S
C134        C135   1.404       .  A
C134        H139   1.084       .  S
C135        C136   1.415       .  A
C136        N421   1.438       .  S
N137        C420   1.438   1_545  S
N137        H141   1.045       .  S
N137        H142   1.042       .  S
N140        H143   1.046       .  S
N140        H144   1.046       .  S
C145        C146   1.404       .  A
C145        C150   1.404       .  A
C145        H152   1.083       .  S
C146        C147   1.416       .  A
C147        C148   1.407       .  A
C147        N154   1.438       .  S
C148        C149   1.405       .  A
C148        H153   1.083       .  S
C149        C150   1.418       .  A
C150        N151   1.438       .  S
N151        H155   1.046       .  S
N151        H156   1.045       .  S
N154        H157   1.045       .  S
N154        H158   1.046       .  S
C159        C160   1.406       .  A
C159        C164   1.402       .  A
C159        H166   1.084       .  S
C160        C161   1.414       .  A
C161        C162   1.404       .  A
C161        N168   1.438       .  S
C162        C163   1.403       .  A
C162        H167   1.084       .  S
C163        C164   1.417       .  A
C164        N165   1.440       .  S
N165        H169   1.046       .  S
N165        H170   1.042       .  S
N168        H171   1.046       .  S
N168        H172   1.046       .  S
C173        C174   1.401       .  A
C173        C178   1.406       .  A
C173        H180   1.084       .  S
C174        C175   1.408       .  A
C175        C176   1.405       .  A
C175        N182   1.438       .  S
C176        C177   1.401       .  A
C176        H181   1.084   1_455  S
C177        C178   1.409       .  A
C178        N179   1.438       .  S
N179        H183   1.046       .  S
N179        H184   1.045   1_554  S
N182        H185   1.046       .  S
N182        H186   1.046   1_455  S
C187        C188   1.402       .  A
C187        C192   1.400       .  A
C187        H194   1.084       .  S
C188        C189   1.415       .  A
C189        C190   1.402       .  A
C189        N196   1.438       .  S
C190        C191   1.403       .  A
C190        H195   1.084       .  S
C191        C192   1.415       .  A
C192        N193   1.439       .  S
N193        H197   1.045       .  S
N193        H198   1.043       .  S
N196        H199   1.043       .  S
N196        H200   1.045       .  S
C201        C202   1.401       .  A
C201        C206   1.399       .  A
C201        H208   1.085       .  S
C202        C203   1.416       .  A
C203        C204   1.400       .  A
C203        N210   1.437       .  S
C204        C205   1.404       .  A
C204        H209   1.084       .  S
C205        C206   1.418       .  A
C206        N207   1.438       .  S
N207        H211   1.045       .  S
N207        H212   1.042   1_545  S
N210        H213   1.041       .  S
N210        H214   1.045       .  S
C215        C216   1.410       .  A
C215        C220   1.404       .  A
C215        H222   1.083       .  S
C216        C217   1.421       .  A
C217        C218   1.401       .  A
C217        N224   1.432       .  S
C218        C219   1.401       .  A
C218        H223   1.084       .  S
C219        C220   1.407       .  A
C220        N505   1.438   1_545  S
N221        C504   1.438       .  S
N221        H225   1.046       .  S
N221        H226   1.045       .  S
N224        H227   1.045       .  S
N224        H228   1.045       .  S
C229        C230   1.403       .  A
C229        C234   1.401       .  A
C229        H236   1.084       .  S
C230        C231   1.419       .  A
C231        C232   1.400       .  A
C231        N238   1.438       .  S
C232        C233   1.401       .  A
C232        H237   1.084       .  S
C233        C234   1.418       .  A
C234        N803   1.440       .  S
N235        C802   1.440   1_455  S
N235        H239   1.046       .  S
N235        H240   1.042       .  S
N238        H241   1.040       .  S
N238        H242   1.045       .  S
C243        C244   1.402       .  A
C243        C248   1.404       .  A
C243        H250   1.084       .  S
C244        C245   1.409       .  A
C245        C246   1.406       .  A
C245        N252   1.437       .  S
C246        C247   1.403       .  A
C246        H251   1.084       .  S
C247        C248   1.410       .  A
C248        N249   1.438       .  S
N249        H253   1.046       .  S
N249        H822   1.046       .  S
N252        H255   1.045       .  S
N252        H256   1.046       .  S
H254        N817   1.046   1_455  S
C257        C258   1.404       .  A
C257        C262   1.404       .  A
C257        H264   1.084       .  S
C258        C259   1.418       .  A
C259        C260   1.403       .  A
C259        N266   1.438       .  S
C260        C261   1.402       .  A
C260        H265   1.084       .  S
C261        C262   1.408       .  A
C262        N263   1.438       .  S
N263        H267   1.046       .  S
N263        H268   1.046       .  S
N266        H269   1.042       .  S
N266        H270   1.045       .  S
C271        C272   1.402       .  A
C271        C276   1.400       .  A
C271        H278   1.085       .  S
C272        C273   1.415       .  A
C273        C274   1.400       .  A
C273        N280   1.436       .  S
C274        C275   1.405       .  A
C274        H279   1.084       .  S
C275        C276   1.419       .  A
C276        N277   1.438       .  S
N277        H281   1.045       .  S
N277        H282   1.042       .  S
N280        H283   1.042       .  S
N280        H284   1.045       .  S
O285       Cr303   2.004       .  S
O285        C293   1.267       .  A
O286       Cr303   1.982       .  S
O286        C287   1.259       .  A
C287        O288   1.263       .  A
C287        C528   1.471       .  S
O288       Cr304   2.005       .  S
O289       Cr304   1.984       .  S
O289        C290   1.262       .  A
C290        O291   1.265       .  A
C290        C542   1.475       .  S
O291       Cr305   2.004       .  S
O292       Cr305   1.981       .  S
O292        C293   1.261       .  A
C293        C500   1.492       .  S
O294       Cr303   1.978       .  S
O294        C302   1.258       .  A
O295       Cr303   2.007       .  S
O295        C296   1.267       .  A
C296        O297   1.262       .  A
C296        C514   1.477       .  S
O297       Cr304   1.980       .  S
O298       Cr304   2.008       .  S
O298        C299   1.265       .  A
C299        O300   1.261       .  A
C299        C556   1.473       .  S
O300       Cr305   1.983       .  S
O301       Cr305   2.005       .  S
O301        C302   1.263       .  A
C302        C486   1.472       .  S
Cr303       O306   1.766       .  S
Cr304       O306   1.771       .  S
Cr305       O306   1.769       .  S
C307        C559   1.483       .  S
C307        C308   1.405       .  A
C307        C312   1.403       .  A
C308        C309   1.405       .  A
C308        H313   1.084       .  S
C309        C320   1.480       .  S
C309        C310   1.404   1_556  A
C310        C311   1.402       .  A
C310        H314   1.084       .  S
C311        C472   1.475       .  S
C311        C312   1.400   1_554  A
C312        H315   1.084       .  S
C316        C895   1.479   1_554  S
C316        C317   1.403       .  A
C316        C889   1.404   1_454  A
C317        C318   1.404       .  A
C317        H322   1.084       .  S
C319        C888   1.404   1_554  A
C319        H891   1.084   1_554  S
C320        C887   1.404   1_556  A
C321        C884   1.404   1_556  A
H323        C887   1.084   1_556  S
C325        C517   1.479       .  S
C325        C326   1.404       .  A
C325        C330   1.401       .  A
C326        C327   1.405       .  A
C326        H331   1.084       .  S
C327        C884   1.479   1_556  S
C327        C896   1.405   1_556  A
C328        C895   1.405   1_554  A
C328        C329   1.402       .  A
C328        H332   1.084       .  S
C329        C461   1.472       .  S
C329        C898   1.398   1_554  A
C330        C897   1.398   1_556  A
C330        H333   1.084       .  S
C334        C444   1.489       .  S
C334        C335   1.404       .  A
C334        C339   1.406       .  A
C335        H340   1.084   1_554  S
C336        C489   1.483       .  S
C336        C337   1.403       .  A
C337        H341   1.084       .  S
C338        C339   1.404       .  A
C339        H342   1.083       .  S
O343       Cr361   2.002       .  S
O343        C351   1.264       .  A
O344       Cr361   1.976       .  S
O344        C345   1.260       .  A
C345        O346   1.264       .  A
C345        C475   1.470       .  S
O346       Cr362   2.003       .  S
O347       Cr362   1.979       .  S
O347        C348   1.261       .  A
C348        O349   1.265       .  A
C348        C447   1.474       .  S
O349       Cr363   2.005       .  S
O350       Cr363   1.978       .  S
O350        C351   1.260       .  A
C351        C458   1.466       .  S
O352       Cr361   1.976       .  S
O352        C360   1.260       .  A
O353       Cr361   1.999       .  S
O353        C354   1.264       .  A
C354        O355   1.263       .  A
C354        C433   1.489       .  S
O355       Cr362   1.985       .  S
O356       Cr362   2.005       .  S
O356        C357   1.266       .  A
C357        O358   1.260       .  A
C357        C416   1.491       .  S
O358       Cr363   1.979       .  S
O359       Cr363   2.003       .  S
O359        C360   1.265       .  A
C360        C402   1.485       .  S
Cr361       O364   1.769       .  S
Cr362       O364   1.771       .  S
Cr363       O364   1.771       .  S
C365        C430   1.493       .  S
C365        C366   1.409       .  A
C365        C370   1.406       .  A
C366        C367   1.403       .  A
C366        H371   1.083       .  S
C367        C545   1.476       .  S
C367        C368   1.399       .  A
C368        C369   1.401       .  A
C368        H372   1.084       .  S
C369        C376   1.476       .  S
C369        C370   1.403       .  A
C370        H373   1.083       .  S
C374        C659   1.404       .  A
C374        C379   1.402       .  A
C375        C658   1.404       .  A
C375        C376   1.403       .  A
C375        H380   1.084       .  S
C376        C377   1.402       .  A
C377        C662   1.401   1_565  A
C377        H381   1.084       .  S
C378        C955   1.475       .  S
C378        C661   1.401       .  A
C378        C379   1.402   1_655  A
C379        H382   1.084       .  S
C383        C531   1.478       .  S
C383        C384   1.403       .  A
C383        C388   1.401       .  A
C384        C953   1.407       .  A
C384        H389   1.083       .  S
C385        C405   1.491       .  S
C385        C952   1.407       .  A
C385        C386   1.406       .  A
C386        C955   1.401   1_455  A
C386        H390   1.084       .  S
C387        C946   1.475       .  S
C387        C954   1.401       .  A
C387        C388   1.401       .  A
C388        H391   1.084       .  S
C392        C419   1.482       .  S
C392        C393   1.404   1_565  A
C392        C397   1.403       .  A
C393        H398   1.084       .  S
C394        C503   1.477       .  S
C394        C395   1.401       .  A
C395        H399   1.084       .  S
C396        C397   1.403   1_545  A
C397        H400   1.084       .  S
C401        C402   1.405       .  A
C401        C406   1.401       .  A
C401        H408   1.084       .  S
C402        C403   1.415       .  A
C403        C404   1.406       .  A
C403        N410   1.438       .  S
C404        C405   1.407       .  A
C404        H409   1.083       .  S
C405        C406   1.411       .  A
C406        N407   1.432   1_455  S
N407        H411   1.046       .  S
N407        H980   1.045       .  S
N410        H413   1.046       .  S
N410        H414   1.046       .  S
H412        N975   1.045       .  S
C415        C416   1.408       .  A
C415        C420   1.398       .  A
C415        H422   1.084       .  S
C416        C417   1.417       .  A
C417        C418   1.407       .  A
C417        N424   1.438       .  S
C418        C419   1.404       .  A
C418        H423   1.084       .  S
C419        C420   1.415       .  A
N421        H425   1.045       .  S
N421        H426   1.042       .  S
N424        H427   1.046       .  S
N424        H428   1.046       .  S
C429        C430   1.404       .  A
C429        C434   1.404       .  A
C429        H436   1.083       .  S
C430        C431   1.416       .  A
C431        C432   1.407       .  A
C431        N438   1.438       .  S
C432        C433   1.405       .  A
C432        H437   1.083       .  S
C433        C434   1.418       .  A
C434        N435   1.438       .  S
N435        H439   1.046       .  S
N435        H440   1.045       .  S
N438        H441   1.045       .  S
N438        H442   1.046       .  S
C443        C444   1.406       .  A
C443        C448   1.402       .  A
C443        H450   1.084       .  S
C444        C445   1.414       .  A
C445        C446   1.404       .  A
C445        N452   1.438       .  S
C446        C447   1.403       .  A
C446        H451   1.084       .  S
C447        C448   1.417       .  A
C448        N449   1.440       .  S
N449        H453   1.046       .  S
N449        H454   1.042       .  S
N452        H455   1.046   1_565  S
N452        H456   1.046       .  S
C457        C458   1.401       .  A
C457        C462   1.406       .  A
C457        H464   1.084       .  S
C458        C459   1.408       .  A
C459        C460   1.405       .  A
C459        N466   1.438       .  S
C460        C461   1.401       .  A
C460        H465   1.084   1_455  S
C461        C462   1.409       .  A
C462        N463   1.438       .  S
N463        H467   1.046       .  S
N463        H468   1.045   1_554  S
N466        H469   1.046       .  S
N466        H470   1.046   1_455  S
C471        C472   1.402       .  A
C471        C476   1.400       .  A
C471        H478   1.084       .  S
C472        C473   1.415       .  A
C473        C474   1.402       .  A
C473        N480   1.438       .  S
C474        C475   1.403       .  A
C474        H479   1.084       .  S
C475        C476   1.415       .  A
C476        N477   1.439       .  S
N477        H481   1.045       .  S
N477        H482   1.043       .  S
N480        H483   1.043       .  S
N480        H484   1.045       .  S
C485        C486   1.401       .  A
C485        C490   1.399       .  A
C485        H492   1.085       .  S
C486        C487   1.416       .  A
C487        C488   1.400       .  A
C487        N494   1.437       .  S
C488        C489   1.404       .  A
C488        H493   1.084       .  S
C489        C490   1.418       .  A
C490        N491   1.438       .  S
N491        H495   1.045       .  S
N491        H496   1.042       .  S
N494        H497   1.041       .  S
N494        H498   1.045       .  S
C499        C500   1.410       .  A
C499        C504   1.404       .  A
C499        H506   1.083       .  S
C500        C501   1.421       .  A
C501        C502   1.401       .  A
C501        N508   1.432       .  S
C502        C503   1.401       .  A
C502        H507   1.084       .  S
C503        C504   1.407       .  A
N505        H509   1.046       .  S
N505        H510   1.045       .  S
N508        H511   1.045       .  S
N508        H512   1.045       .  S
C513        C514   1.403       .  A
C513        C518   1.401       .  A
C513        H520   1.084       .  S
C514        C515   1.419       .  A
C515        C516   1.400       .  A
C515        N522   1.438       .  S
C516        C517   1.401       .  A
C516        H521   1.084       .  S
C517        C518   1.418       .  A
C518       N1087   1.440       .  S
N519       C1086   1.440   1_455  S
N519        H523   1.046       .  S
N519        H524   1.042       .  S
N522        H525   1.040       .  S
N522        H526   1.045       .  S
C527        C528   1.402       .  A
C527        C532   1.404       .  A
C527        H534   1.084       .  S
C528        C529   1.409       .  A
C529        C530   1.406       .  A
C529        N536   1.437       .  S
C530        C531   1.403       .  A
C530        H535   1.084       .  S
C531        C532   1.410       .  A
C532        N533   1.438       .  S
N533        H537   1.046       .  S
N533       H1106   1.046       .  S
N536        H539   1.045       .  S
N536        H540   1.046       .  S
H538       N1101   1.046   1_455  S
C541        C542   1.404       .  A
C541        C546   1.404       .  A
C541        H548   1.084       .  S
C542        C543   1.418       .  A
C543        C544   1.403       .  A
C543        N550   1.438       .  S
C544        C545   1.402       .  A
C544        H549   1.084       .  S
C545        C546   1.408       .  A
C546        N547   1.438       .  S
N547        H551   1.046       .  S
N547        H552   1.046       .  S
N550        H553   1.042       .  S
N550        H554   1.045       .  S
C555        C556   1.402       .  A
C555        C560   1.400       .  A
C555        H562   1.085       .  S
C556        C557   1.415       .  A
C557        C558   1.400       .  A
C557        N564   1.436       .  S
C558        C559   1.405       .  A
C558        H563   1.084       .  S
C559        C560   1.419       .  A
C560        N561   1.438       .  S
N561        H565   1.045       .  S
N561        H566   1.042       .  S
N564        H567   1.042       .  S
N564        H568   1.045       .  S
O569       Cr587   2.004       .  S
O569        C577   1.267       .  A
O570       Cr587   1.982       .  S
O570        C571   1.259       .  A
C571        O572   1.263       .  A
C571        C812   1.471       .  S
O572       Cr588   2.005       .  S
O573       Cr588   1.985       .  S
O573        C574   1.262       .  A
C574        O575   1.265       .  A
C574        C826   1.475       .  S
O575       Cr589   2.004       .  S
O576       Cr589   1.981       .  S
O576        C577   1.261       .  A
C577        C784   1.492       .  S
O578       Cr587   1.977       .  S
O578        C586   1.258       .  A
O579       Cr587   2.007       .  S
O579        C580   1.267       .  A
C580        O581   1.262       .  A
C580        C798   1.477       .  S
O581       Cr588   1.980       .  S
O582       Cr588   2.008       .  S
O582        C583   1.265       .  A
C583        O584   1.261       .  A
C583        C840   1.473       .  S
O584       Cr589   1.983       .  S
O585       Cr589   2.005       .  S
O585        C586   1.263       .  A
C586        C770   1.472       .  S
Cr587       O590   1.766       .  S
Cr588       O590   1.771       .  S
Cr589       O590   1.769       .  S
C591        C843   1.483       .  S
C591        C592   1.405       .  A
C591        C596   1.403       .  A
C592        C593   1.405       .  A
C592        H597   1.084       .  S
C593        C604   1.480       .  S
C593        C594   1.404   1_556  A
C594        C595   1.402       .  A
C594        H598   1.084       .  S
C595        C756   1.475       .  S
C595        C596   1.400   1_554  A
C596        H599   1.084       .  S
C600        C601   1.403       .  A
C601        C602   1.404   1_545  A
C601        H606   1.084       .  S
C602        C906   1.479       .  S
C602        C887   1.404       .  A
C603        C886   1.404       .  A
C604        C889   1.405       .  A
C605        C888   1.405   1_545  A
C605        H892   1.084       .  S
H608        C889   1.084       .  S
C609        C801   1.479       .  S
C609        C610   1.404       .  A
C609        C614   1.401   1_655  A
C610        C611   1.405   1_655  A
C610        H615   1.084       .  S
C612        C613   1.402       .  A
C612        H616   1.084       .  S
C613        C745   1.472       .  S
C614        H617   1.084       .  S
C618        C728   1.489       .  S
C618        C619   1.404       .  A
C618        C623   1.406       .  A
C619        C904   1.402   1_554  A
C619        H624   1.084   1_554  S
C620        C773   1.483       .  S
C620        C903   1.402   1_546  A
C620        C621   1.403       .  A
C621        C906   1.403   1_546  A
C621        H625   1.084       .  S
C622        C886   1.479       .  S
C622        C905   1.403   1_554  A
C622        C623   1.404       .  A
C623        H626   1.083       .  S
O627       Cr645   2.002       .  S
O627        C635   1.264       .  A
O628       Cr645   1.976       .  S
O628        C629   1.260       .  A
C629        O630   1.264       .  A
C629        C759   1.470       .  S
O630       Cr646   2.003       .  S
O631       Cr646   1.979       .  S
O631        C632   1.261       .  A
C632        O633   1.265       .  A
C632        C731   1.474       .  S
O633       Cr647   2.005       .  S
O634       Cr647   1.978       .  S
O634        C635   1.260       .  A
C635        C742   1.466       .  S
O636       Cr645   1.976       .  S
O636        C644   1.260       .  A
O637       Cr645   1.999       .  S
O637        C638   1.264       .  A
C638        O639   1.263       .  A
C638        C717   1.489       .  S
O639       Cr646   1.985       .  S
O640       Cr646   2.005       .  S
O640        C641   1.266       .  A
C641        O642   1.260       .  A
C641        C700   1.491       .  S
O642       Cr647   1.979       .  S
O643       Cr647   2.003       .  S
O643        C644   1.265       .  A
C644        C686   1.485       .  S
Cr645       O648   1.769       .  S
Cr646       O648   1.771       .  S
Cr647       O648   1.771       .  S
C649        C714   1.493       .  S
C649        C650   1.409       .  A
C649        C654   1.406       .  A
C650        C651   1.403       .  A
C650        H655   1.083       .  S
C651        C829   1.476       .  S
C651        C652   1.399       .  A
C652        C653   1.401       .  A
C652        H656   1.084       .  S
C653        C660   1.476       .  S
C653        C654   1.403       .  A
C654        H657   1.083       .  S
C658        C964   1.477   1_565  S
C658        C663   1.402   1_565  A
C659        C660   1.403   1_455  A
C659        H664   1.084       .  S
C660        C661   1.403       .  A
C661        H665   1.084       .  S
C662        C663   1.402       .  A
C663        H666   1.084       .  S
C667        C815   1.478       .  S
C667        C668   1.403   1_655  A
C667        C672   1.401       .  A
C668        H673   1.083       .  S
C669        C689   1.491       .  S
C669        C670   1.406       .  A
C670        H674   1.084       .  S
C671        C672   1.401       .  A
C672        H675   1.084       .  S
C676        C703   1.482       .  S
C676        C677   1.404       .  A
C676        C681   1.403       .  A
C677        C962   1.402       .  A
C677        H682   1.084       .  S
C678        C787   1.477       .  S
C678        C961   1.402       .  A
C678        C679   1.401       .  A
C679        C964   1.404       .  A
C679        H683   1.084       .  S
C680        C942   1.477       .  S
C680        C963   1.404       .  A
C680        C681   1.403       .  A
C681        H684   1.084       .  S
C685        C686   1.405       .  A
C685        C690   1.401       .  A
C685        H692   1.084       .  S
C686        C687   1.415       .  A
C687        C688   1.406       .  A
C687        N694   1.438       .  S
C688        C689   1.407       .  A
C688        H693   1.083       .  S
C689        C690   1.411       .  A
C690        N691   1.432       .  S
N691        H695   1.046       .  S
N694        H697   1.046       .  S
N694        H698   1.046       .  S
C699        C700   1.408       .  A
C699        C704   1.398       .  A
C699        H706   1.084       .  S
C700        C701   1.417       .  A
C701        C702   1.407       .  A
C701        N708   1.438       .  S
C702        C703   1.404       .  A
C702        H707   1.084       .  S
C703        C704   1.415       .  A
C704        N989   1.438       .  S
N705        C988   1.438   1_545  S
N705        H709   1.045       .  S
N705        H710   1.042       .  S
N708        H711   1.046       .  S
N708        H712   1.046       .  S
C713        C714   1.404       .  A
C713        C718   1.404       .  A
C713        H720   1.083       .  S
C714        C715   1.416       .  A
C715        C716   1.407       .  A
C715        N722   1.438       .  S
C716        C717   1.405       .  A
C716        H721   1.083       .  S
C717        C718   1.418       .  A
C718        N719   1.438       .  S
N719        H723   1.046       .  S
N719        H724   1.045       .  S
N722        H725   1.045       .  S
N722        H726   1.046       .  S
C727        C728   1.406       .  A
C727        C732   1.402       .  A
C727        H734   1.084       .  S
C728        C729   1.414       .  A
C729        C730   1.404       .  A
C729        N736   1.438       .  S
C730        C731   1.403       .  A
C730        H735   1.084       .  S
C731        C732   1.417       .  A
C732        N733   1.440       .  S
N733        H737   1.046       .  S
N733        H738   1.042       .  S
N736        H739   1.046       .  S
N736        H740   1.046       .  S
C741        C742   1.401       .  A
C741        C746   1.406       .  A
C741        H748   1.084       .  S
C742        C743   1.408       .  A
C743        C744   1.405       .  A
C743        N750   1.438       .  S
C744        C745   1.401       .  A
C744        H749   1.084       .  S
C745        C746   1.409       .  A
C746        N747   1.438       .  S
N747        H751   1.046       .  S
N747        H752   1.045   1_554  S
N750        H753   1.046       .  S
N750        H754   1.046       .  S
C755        C756   1.402       .  A
C755        C760   1.400       .  A
C755        H762   1.084       .  S
C756        C757   1.415       .  A
C757        C758   1.402       .  A
C757        N764   1.438       .  S
C758        C759   1.403       .  A
C758        H763   1.084       .  S
C759        C760   1.415       .  A
C760        N761   1.439       .  S
N761        H765   1.045       .  S
N761        H766   1.043       .  S
N764        H767   1.043       .  S
N764        H768   1.045       .  S
C769        C770   1.401       .  A
C769        C774   1.399       .  A
C769        H776   1.085       .  S
C770        C771   1.416       .  A
C771        C772   1.400       .  A
C771        N778   1.437       .  S
C772        C773   1.404       .  A
C772        H777   1.084       .  S
C773        C774   1.418       .  A
C774        N775   1.438       .  S
N775        H779   1.045       .  S
N775        H780   1.042   1_545  S
N778        H781   1.041       .  S
N778        H782   1.045       .  S
C783        C784   1.410       .  A
C783        C788   1.404       .  A
C783        H790   1.083       .  S
C784        C785   1.421       .  A
C785        C786   1.401       .  A
C785        N792   1.432       .  S
C786        C787   1.401       .  A
C786        H791   1.084       .  S
C787        C788   1.407       .  A
C788       N1073   1.438   1_545  S
N789       C1072   1.438       .  S
N789        H793   1.046       .  S
N789        H794   1.045       .  S
N792        H795   1.045       .  S
N792        H796   1.045       .  S
C797        C798   1.403       .  A
C797        C802   1.401       .  A
C797        H804   1.084       .  S
C798        C799   1.419       .  A
C799        C800   1.400       .  A
C799        N806   1.438       .  S
C800        C801   1.401       .  A
C800        H805   1.084       .  S
C801        C802   1.418       .  A
N803        H807   1.046       .  S
N803        H808   1.042       .  S
N806        H809   1.040       .  S
N806        H810   1.045       .  S
C811        C812   1.402       .  A
C811        C816   1.404       .  A
C811        H818   1.084       .  S
C812        C813   1.409       .  A
C813        C814   1.406       .  A
C813        N820   1.437       .  S
C814        C815   1.403       .  A
C814        H819   1.084       .  S
C815        C816   1.410       .  A
C816        N817   1.438       .  S
N817        H821   1.046       .  S
N820        H823   1.045       .  S
N820        H824   1.046       .  S
C825        C826   1.404       .  A
C825        C830   1.404       .  A
C825        H832   1.084       .  S
C826        C827   1.418       .  A
C827        C828   1.403       .  A
C827        N834   1.438       .  S
C828        C829   1.402       .  A
C828        H833   1.084       .  S
C829        C830   1.408       .  A
C830        N831   1.438       .  S
N831        H835   1.046       .  S
N831        H836   1.046       .  S
N834        H837   1.042       .  S
N834        H838   1.045       .  S
C839        C840   1.402       .  A
C839        C844   1.400       .  A
C839        H846   1.085       .  S
C840        C841   1.415       .  A
C841        C842   1.400       .  A
C841        N848   1.436       .  S
C842        C843   1.405       .  A
C842        H847   1.084       .  S
C843        C844   1.419       .  A
C844        N845   1.438       .  S
N845        H849   1.045       .  S
N845        H850   1.042       .  S
N848        H851   1.042       .  S
N848        H852   1.045       .  S
O853       Cr871   2.004       .  S
O853        C861   1.267       .  A
O854       Cr871   1.982       .  S
O854        C855   1.259       .  A
C855        O856   1.263       .  A
C855       C1096   1.471       .  S
O856       Cr872   2.005       .  S
O857       Cr872   1.984       .  S
O857        C858   1.262       .  A
C858        O859   1.265       .  A
C858       C1110   1.475       .  S
O859       Cr873   2.004       .  S
O860       Cr873   1.981       .  S
O860        C861   1.261       .  A
C861       C1068   1.492       .  S
O862       Cr871   1.978       .  S
O862        C870   1.258       .  A
O863       Cr871   2.007       .  S
O863        C864   1.267       .  A
C864        O865   1.262       .  A
C864       C1082   1.477       .  S
O865       Cr872   1.980       .  S
O866       Cr872   2.008       .  S
O866        C867   1.265       .  A
C867        O868   1.261       .  A
C867       C1124   1.473       .  S
O868       Cr873   1.983       .  S
O869       Cr873   2.005       .  S
O869        C870   1.263       .  A
C870       C1054   1.472       .  S
Cr871       O874   1.766       .  S
Cr872       O874   1.771       .  S
Cr873       O874   1.769       .  S
C875       C1127   1.483       .  S
C875        C876   1.405       .  A
C875        C880   1.403       .  A
C876        C877   1.405       .  A
C876        H881   1.084       .  S
C877        C888   1.480       .  S
C877        C878   1.404   1_556  A
C878        C879   1.402       .  A
C878        H882   1.084       .  S
C879       C1040   1.475       .  S
C879        C880   1.400   1_554  A
C880        H883   1.084       .  S
C884        C885   1.403       .  A
C885        C886   1.404       .  A
C885        H890   1.084       .  S
C893       C1085   1.479       .  S
C893        C894   1.404       .  A
C893        C898   1.401   1_655  A
C894        C895   1.405   1_655  A
C894        H899   1.084       .  S
C896        C897   1.402       .  A
C896        H900   1.084       .  S
C897       C1029   1.472       .  S
C898        H901   1.084       .  S
C902       C1012   1.489       .  S
C902        C903   1.404       .  A
C902        C907   1.406       .  A
C903        H908   1.084   1_554  S
C904       C1057   1.483       .  S
C904        C905   1.403       .  A
C905        H909   1.084       .  S
C906        C907   1.404       .  A
C907        H910   1.083       .  S
O911       Cr929   2.002       .  S
O911        C919   1.264       .  A
O912       Cr929   1.976       .  S
O912        C913   1.260       .  A
C913        O914   1.264       .  A
C913       C1043   1.470       .  S
O914       Cr930   2.003       .  S
O915       Cr930   1.979       .  S
O915        C916   1.261       .  A
C916        O917   1.265       .  A
C916       C1015   1.474       .  S
O917       Cr931   2.005       .  S
O918       Cr931   1.978       .  S
O918        C919   1.260       .  A
C919       C1026   1.466       .  S
O920       Cr929   1.976       .  S
O920        C928   1.260       .  A
O921       Cr929   1.999       .  S
O921        C922   1.264       .  A
C922        O923   1.263       .  A
C922       C1001   1.489       .  S
O923       Cr930   1.985       .  S
O924       Cr930   2.005       .  S
O924        C925   1.266       .  A
C925        O926   1.260       .  A
C925        C984   1.491       .  S
O926       Cr931   1.979       .  S
O927       Cr931   2.003       .  S
O927        C928   1.265       .  A
C928        C970   1.485       .  S
Cr929       O932   1.769       .  S
Cr930       O932   1.771       .  S
Cr931       O932   1.771       .  S
C933        C998   1.493       .  S
C933        C934   1.409       .  A
C933        C938   1.406       .  A
C934        C935   1.403       .  A
C934        H939   1.083       .  S
C935       C1113   1.476       .  S
C935        C936   1.399       .  A
C936        C937   1.401       .  A
C936        H940   1.084       .  S
C937        C944   1.476       .  S
C937        C938   1.403       .  A
C938        H941   1.083       .  S
C942        C947   1.402       .  A
C943        C944   1.403   1_455  A
C943        H948   1.084       .  S
C944        C945   1.402       .  A
C945        H949   1.084       .  S
C946        C947   1.402       .  A
C947        H950   1.084       .  S
C951       C1099   1.478       .  S
C951        C952   1.403   1_655  A
C951        C956   1.401       .  A
C952        H957   1.083       .  S
C953        C973   1.491       .  S
C953        C954   1.406       .  A
C954        H958   1.084       .  S
C955        C956   1.401       .  A
C956        H959   1.084       .  S
C960        C987   1.482       .  S
C960        C961   1.404   1_565  A
C960        C965   1.403       .  A
C961        H966   1.084       .  S
C962       C1071   1.477       .  S
C962        C963   1.401       .  A
C963        H967   1.084       .  S
C964        C965   1.403   1_545  A
C965        H968   1.084       .  S
C969        C970   1.405       .  A
C969        C974   1.401       .  A
C969        H976   1.084       .  S
C970        C971   1.415       .  A
C971        C972   1.406       .  A
C971        N978   1.438       .  S
C972        C973   1.407       .  A
C972        H977   1.083       .  S
C973        C974   1.411       .  A
C974        N975   1.432       .  S
N975        H979   1.046       .  S
N978        H981   1.046       .  S
N978        H982   1.046       .  S
C983        C984   1.408       .  A
C983        C988   1.398       .  A
C983        H990   1.084       .  S
C984        C985   1.417       .  A
C985        C986   1.407       .  A
C985        N992   1.438       .  S
C986        C987   1.404       .  A
C986        H991   1.084       .  S
C987        C988   1.415       .  A
N989        H993   1.045       .  S
N989        H994   1.042       .  S
N992        H995   1.046       .  S
N992        H996   1.046       .  S
C997        C998   1.404       .  A
C997       C1002   1.404       .  A
C997       H1004   1.083       .  S
C998        C999   1.416       .  A
C999       C1000   1.407       .  A
C999       N1006   1.438       .  S
C1000      C1001   1.405       .  A
C1000      H1005   1.083       .  S
C1001      C1002   1.418       .  A
C1002      N1003   1.438       .  S
N1003      H1007   1.046       .  S
N1003      H1008   1.045       .  S
N1006      H1009   1.045       .  S
N1006      H1010   1.046       .  S
C1011      C1012   1.406       .  A
C1011      C1016   1.402       .  A
C1011      H1018   1.084       .  S
C1012      C1013   1.414       .  A
C1013      C1014   1.404       .  A
C1013      N1020   1.438       .  S
C1014      C1015   1.403       .  A
C1014      H1019   1.084       .  S
C1015      C1016   1.417       .  A
C1016      N1017   1.440       .  S
N1017      H1021   1.046       .  S
N1017      H1022   1.042       .  S
N1020      H1023   1.046   1_565  S
N1020      H1024   1.046       .  S
C1025      C1026   1.401       .  A
C1025      C1030   1.406       .  A
C1025      H1032   1.084       .  S
C1026      C1027   1.408       .  A
C1027      C1028   1.405       .  A
C1027      N1034   1.438       .  S
C1028      C1029   1.401       .  A
C1028      H1033   1.084       .  S
C1029      C1030   1.409       .  A
C1030      N1031   1.438       .  S
N1031      H1035   1.046       .  S
N1031      H1036   1.045   1_554  S
N1034      H1037   1.046       .  S
N1034      H1038   1.046       .  S
C1039      C1040   1.402       .  A
C1039      C1044   1.400       .  A
C1039      H1046   1.084       .  S
C1040      C1041   1.415       .  A
C1041      C1042   1.402       .  A
C1041      N1048   1.438       .  S
C1042      C1043   1.403       .  A
C1042      H1047   1.084       .  S
C1043      C1044   1.415       .  A
C1044      N1045   1.439       .  S
N1045      H1049   1.045       .  S
N1045      H1050   1.043       .  S
N1048      H1051   1.043       .  S
N1048      H1052   1.045       .  S
C1053      C1054   1.401       .  A
C1053      C1058   1.399       .  A
C1053      H1060   1.085       .  S
C1054      C1055   1.416       .  A
C1055      C1056   1.400       .  A
C1055      N1062   1.437       .  S
C1056      C1057   1.404       .  A
C1056      H1061   1.084       .  S
C1057      C1058   1.418       .  A
C1058      N1059   1.438       .  S
N1059      H1063   1.045       .  S
N1059      H1064   1.042       .  S
N1062      H1065   1.041       .  S
N1062      H1066   1.045       .  S
C1067      C1068   1.410       .  A
C1067      C1072   1.404       .  A
C1067      H1074   1.083       .  S
C1068      C1069   1.421       .  A
C1069      C1070   1.401       .  A
C1069      N1076   1.432       .  S
C1070      C1071   1.401       .  A
C1070      H1075   1.084       .  S
C1071      C1072   1.407       .  A
N1073      H1077   1.046       .  S
N1073      H1078   1.045       .  S
N1076      H1079   1.045       .  S
N1076      H1080   1.045       .  S
C1081      C1082   1.403       .  A
C1081      C1086   1.401       .  A
C1081      H1088   1.084       .  S
C1082      C1083   1.419       .  A
C1083      C1084   1.400       .  A
C1083      N1090   1.438       .  S
C1084      C1085   1.401       .  A
C1084      H1089   1.084       .  S
C1085      C1086   1.418       .  A
N1087      H1091   1.046       .  S
N1087      H1092   1.042       .  S
N1090      H1093   1.040       .  S
N1090      H1094   1.045       .  S
C1095      C1096   1.402       .  A
C1095      C1100   1.404       .  A
C1095      H1102   1.084       .  S
C1096      C1097   1.409       .  A
C1097      C1098   1.406       .  A
C1097      N1104   1.437       .  S
C1098      C1099   1.403       .  A
C1098      H1103   1.084       .  S
C1099      C1100   1.410       .  A
C1100      N1101   1.438       .  S
N1101      H1105   1.046       .  S
N1104      H1107   1.045       .  S
N1104      H1108   1.046       .  S
C1109      C1110   1.404       .  A
C1109      C1114   1.404       .  A
C1109      H1116   1.084       .  S
C1110      C1111   1.418       .  A
C1111      C1112   1.403       .  A
C1111      N1118   1.438       .  S
C1112      C1113   1.402       .  A
C1112      H1117   1.084       .  S
C1113      C1114   1.408       .  A
C1114      N1115   1.438       .  S
N1115      H1119   1.046       .  S
N1115      H1120   1.046       .  S
N1118      H1121   1.042       .  S
N1118      H1122   1.045       .  S
C1123      C1124   1.402       .  A
C1123      C1128   1.400       .  A
C1123      H1130   1.085       .  S
C1124      C1125   1.415       .  A
C1125      C1126   1.400       .  A
C1125      N1132   1.436       .  S
C1126      C1127   1.405       .  A
C1126      H1131   1.084       .  S
C1127      C1128   1.419       .  A
C1128      N1129   1.438       .  S
N1129      H1133   1.045       .  S
N1129      H1134   1.042       .  S
N1132      H1135   1.042       .  S
N1132      H1136   1.045       .  S
