geometry optimzed in LAMMPS
_audit_creation_date              2020-11-30 
_audit_creation_method            'lammps2cif' 
_symmetry_space_group_name_H-M    'P1' 
_symmetry_Int_Tables_number       1 
_symmetry_cell_setting            triclinic 
loop_ 
_symmetry_equiv_pos_as_xyz 
  x,y,z 
_cell_length_a                    54.1670801 
_cell_length_b                    53.582616670840636 
_cell_length_c                    48.17063719690629 
_cell_angle_alpha                 89.86329850354264 
_cell_angle_beta                  89.90308009011586 
_cell_angle_gamma                 89.96272236920598 
loop_ 
_atom_site_label 
_atom_site_type_symbol 
_atom_site_fract_x 
_atom_site_fract_y 
_atom_site_fract_z 
_atom_site_charge 
N1          N  0.29439831  0.04770653  0.67989727    -0.25800
N2          N  0.30478541  0.06810781  0.68999582    -0.33700
C3          C  0.29196904  0.07563518  0.71241094     0.02500
C4          C  0.27273652  0.05917100  0.71648074     0.08500
C5          C  0.27472908  0.04170551  0.69562835    -0.04600
H6          H  0.29620201  0.09201929  0.72459646     0.09200
H7          H  0.26264096  0.02600029  0.69190301     0.10400
Cu8        Cu  0.33540711  0.08541387  0.67258476     0.44200
Cu9        Cu  0.30656175  0.02938006  0.64460600     0.42000
Cu10       Cu  0.35757035  0.05861367  0.60871460     0.43900
N11         N  0.36514523  0.09961355  0.65040020    -0.33200
N12         N  0.37291960  0.09000499  0.62670067    -0.27500
C13         C  0.39209182  0.10349868  0.61722452    -0.03600
C14         C  0.39678846  0.12237243  0.63595700     0.08600
C15         C  0.37931321  0.11939696  0.65677275     0.02400
H16         H  0.40209060  0.09963879  0.59824952     0.10100
H17         H  0.37686902  0.13079957  0.67506856     0.09200
N18         N  0.34008357  0.02666770  0.59486423    -0.34700
N19         N  0.32146987  0.01584140  0.60798934    -0.26800
C20         C  0.31446858  0.99549835  0.59369512    -0.02100
C21         C  0.32945445  0.99359544  0.57061410     0.06500
C22         C  0.34546368  0.01353375  0.57189774     0.04600
H23         H  0.29966817  0.98305350  0.59972657     0.09700
H24         H  0.36000688  0.01813251  0.55734000     0.08600
O25         O  0.45308017  0.18214290  0.67569612    -0.71500
O26         O  0.50841072  0.23141691  0.67231747    -0.72500
O27         O  0.45613936  0.23499170  0.67306708    -0.61100
O28         O  0.50563235  0.17876691  0.67454307    -0.69500
O29         O  0.50472070  0.17733181  0.62849899    -0.69000
O30         O  0.45571944  0.23332306  0.62702483    -0.60300
O31         O  0.50792697  0.23020167  0.62624332    -0.72800
O32         O  0.45243599  0.18027613  0.62966569    -0.71600
Cu33       Cu  0.48080819  0.20686209  0.67551233     1.04600
Cu34       Cu  0.48014044  0.20521150  0.62624724     1.04300
C35         C  0.44406015  0.17335260  0.65330920     0.94700
C36         C  0.51691854  0.23858245  0.64891481     0.93900
C37         C  0.44833667  0.24313632  0.64968605     0.86000
C38         C  0.51311171  0.16937284  0.65162534     0.92300
N39         N  0.67331638  0.05362092  0.70410142    -0.25800
N40         N  0.66020908  0.07030839  0.71798575    -0.33700
C41         C  0.67242704  0.07654848  0.74123067     0.02500
C42         C  0.69417157  0.06317370  0.74189874     0.08500
C43         C  0.69424860  0.04880327  0.71816270    -0.04600
H44         H  0.66612988  0.09015264  0.75622975     0.09200
H45         H  0.70855403  0.03608104  0.71138685     0.10400
Cu46       Cu  0.62709184  0.08517892  0.70404759     0.44200
Cu47       Cu  0.66244118  0.03884083  0.66630031     0.42000
Cu48       Cu  0.60651782  0.06509268  0.63655158     0.43900
N49         N  0.59641742  0.09996485  0.68418343    -0.33200
N50         N  0.58920265  0.09291198  0.65921067    -0.27500
C51         C  0.56963769  0.10673108  0.65152135    -0.03600
C52         C  0.56424980  0.12331001  0.67274125     0.08600
C53         C  0.58154538  0.11840732  0.69312524     0.02400
H54         H  0.56019618  0.10479945  0.63188174     0.10100
H55         H  0.58350665  0.12791378  0.71278581     0.09200
N56         N  0.62658425  0.03645418  0.61847563    -0.34700
N57         N  0.64696368  0.02691399  0.62929310    -0.26800
C58         C  0.65494896  0.00818948  0.61303419    -0.02100
C59         C  0.63882462  0.00596413  0.59106184     0.06500
C60         C  0.62105050  0.02404533  0.59505214     0.04600
H61         H  0.67099380  0.99675930  0.61723784     0.09700
H62         H  0.60503412  0.02762335  0.58225080     0.08600
N63         N  0.30393859  0.37919409  0.69850986    -0.25800
N64         N  0.31465605  0.36120881  0.71300079    -0.33700
C65         C  0.30171659  0.35736204  0.73648701     0.02500
C66         C  0.28207094  0.37375844  0.73664070     0.08500
C67         C  0.28392509  0.38729805  0.71236618    -0.04600
H68         H  0.30603260  0.34335293  0.75195704     0.09200
H69         H  0.27144900  0.40164672  0.70503912     0.10400
Cu70       Cu  0.34548682  0.34178167  0.69940643     0.44200
Cu71       Cu  0.31634189  0.39127823  0.66012477     0.42000
Cu72       Cu  0.36748304  0.35708412  0.63028300     0.43900
N73         N  0.37398223  0.32297022  0.67968249    -0.33200
N74         N  0.38154534  0.32812864  0.65419733    -0.27500
C75         C  0.39922036  0.31174794  0.64694509    -0.03600
C76         C  0.40298195  0.29551601  0.66898720     0.08600
C77         C  0.38679190  0.30329739  0.68941214     0.02400
H78         H  0.40859912  0.31178752  0.62710522     0.10100
H79         H  0.38412044  0.29492973  0.70965339     0.09200
N80         N  0.35086807  0.38752037  0.61123052    -0.34700
N81         N  0.33218101  0.39999659  0.62221126    -0.26800
C82         C  0.32594717  0.41886342  0.60514619    -0.02100
C83         C  0.34146999  0.41813893  0.58245746     0.06500
C84         C  0.35704701  0.39813818  0.58684853     0.04600
H85         H  0.31136187  0.43219832  0.60912468     0.09700
H86         H  0.37188857  0.39188428  0.57350550     0.08600
N87         N  0.66358777  0.36520099  0.67227815    -0.25800
N88         N  0.65225538  0.34579778  0.68354347    -0.33700
C89         C  0.66292272  0.34040933  0.70804712     0.02500
C90         C  0.68177476  0.35727854  0.71226554     0.08500
C91         C  0.68177082  0.37270795  0.68929935    -0.04600
H92         H  0.65768824  0.32503592  0.72142329     0.09200
H93         H  0.69436250  0.38789788  0.68495520     0.10400
Cu94       Cu  0.62375321  0.32689000  0.66421883     0.44200
Cu95       Cu  0.65454260  0.37973673  0.63368810     0.42000
Cu96       Cu  0.60713595  0.34720045  0.59473695     0.43900
N97         N  0.59657534  0.31029181  0.64038937    -0.33200
N98         N  0.59073163  0.31730347  0.61490253    -0.27500
C99         C  0.57221894  0.30283050  0.60561732    -0.03600
C100        C  0.56597782  0.28611244  0.62635911     0.08600
C101        C  0.58189047  0.29130959  0.64807098     0.02400
H102        H  0.56349117  0.30480358  0.58554187     0.10100
H103        H  0.58274975  0.28218503  0.66808881     0.09200
N104        N  0.62516660  0.37884543  0.58052159    -0.34700
N105        N  0.64241271  0.39072346  0.59472700    -0.26800
C106        C  0.64981551  0.41082275  0.58014837    -0.02100
C107        C  0.63655758  0.41151171  0.55574452     0.06500
C108        C  0.62110163  0.39108470  0.55654696     0.04600
H109        H  0.66352019  0.42410891  0.58703770     0.09700
H110        H  0.60762963  0.38571178  0.54112382     0.08600
N111        N  0.30616853  0.87041558  0.34951351    -0.25800
N112        N  0.31668938  0.85114959  0.33707357    -0.33700
C113        C  0.30507001  0.84689624  0.31287266     0.02500
C114        C  0.28653054  0.86439190  0.31014099     0.08500
C115        C  0.28764469  0.87896800  0.33360835    -0.04600
H116        H  0.30942274  0.83184704  0.29873982     0.09200
H117        H  0.27549863  0.89422273  0.33912132     0.10400
Cu118      Cu  0.34541217  0.83078608  0.35430888     0.44200
Cu119      Cu  0.31608952  0.88335611  0.38827339     0.42000
Cu120      Cu  0.36375207  0.84885347  0.42377890     0.43900
N121        N  0.37290233  0.81295396  0.37676388    -0.33200
N122        N  0.37933456  0.81936004  0.40223231    -0.27500
C123        C  0.39734324  0.80402492  0.41108302    -0.03600
C124        C  0.40251369  0.78716523  0.39011192     0.08600
C125        C  0.38675528  0.79343927  0.36866655     0.02400
H126        H  0.40614153  0.80536460  0.43116096     0.10100
H127        H  0.38540057  0.78443145  0.34865021     0.09200
N128        N  0.34565889  0.87924990  0.44084225    -0.34700
N129        N  0.32820079  0.89188699  0.42776155    -0.26800
C130        C  0.32030993  0.91055954  0.44412255    -0.02100
C131        C  0.33346211  0.90951307  0.46856081     0.06500
C132        C  0.34939500  0.88956642  0.46591444     0.04600
H133        H  0.30623485  0.92398117  0.43850097     0.09700
H134        H  0.36283985  0.88314921  0.48090872     0.08600
O135        O  0.51196353  0.73155898  0.38585755    -0.71500
O136        O  0.46005246  0.67841257  0.38967551    -0.72500
O137        O  0.45965738  0.73124220  0.38852295    -0.61100
O138        O  0.51237920  0.67887847  0.38682753    -0.69500
O139        O  0.51416300  0.67928804  0.43287462    -0.69000
O140        O  0.46144300  0.73202789  0.43455370    -0.60300
O141        O  0.46197522  0.67894906  0.43571299    -0.72800
O142        O  0.51364633  0.73228554  0.43190864    -0.71600
Cu143      Cu  0.48593319  0.70499420  0.38612319     1.04600
Cu144      Cu  0.48786095  0.70566019  0.43538850     1.04300
C145        C  0.52097876  0.74029129  0.40828762     0.94700
C146        C  0.45286512  0.67027434  0.41330644     0.93900
C147        C  0.45229476  0.73998450  0.41176491     0.86000
C148        C  0.52162208  0.67085702  0.40954134     0.92300
N149        N  0.67058620  0.86399487  0.38299301    -0.25800
N150        N  0.65820458  0.84532898  0.37172817    -0.33700
C151        C  0.66874518  0.83922099  0.34739249     0.02500
C152        C  0.68862890  0.85482433  0.34327352     0.08500
C153        C  0.68937629  0.87030321  0.36609438    -0.04600
H154        H  0.66244769  0.82445970  0.33384901     0.09200
H155        H  0.70258319  0.88497530  0.37019448     0.10400
Cu156      Cu  0.62790678  0.82872575  0.39010027     0.44200
Cu157      Cu  0.66132429  0.87986164  0.42080374     0.42000
Cu158      Cu  0.61050147  0.85100437  0.45818205     0.43900
N159        N  0.59910976  0.81411249  0.41305879    -0.33200
N160        N  0.59301817  0.82179813  0.43820337    -0.27500
C161        C  0.57394515  0.80806693  0.44752672    -0.03600
C162        C  0.56766418  0.79110633  0.42717240     0.08600
C163        C  0.58403624  0.79542242  0.40560533     0.02400
H164        H  0.56520524  0.81037217  0.46757208     0.10100
H165        H  0.58526331  0.78556445  0.38608882     0.09200
N166        N  0.62922178  0.88227489  0.47195985    -0.34700
N167        N  0.64767453  0.89287362  0.45830542    -0.26800
C168        C  0.65486830  0.91343474  0.47206484    -0.02100
C169        C  0.64021600  0.91574614  0.49535785     0.06500
C170        C  0.62416980  0.89579706  0.49475675     0.04600
H171        H  0.66929385  0.92600857  0.46526033     0.09700
H172        H  0.60953661  0.89170551  0.50938790     0.08600
N173        N  0.33109815  0.51785610  0.43706987    -0.25800
N174        N  0.34925557  0.53055865  0.44869045    -0.33700
C175        C  0.35571546  0.51932488  0.47259731     0.02500
C176        C  0.34087428  0.49864488  0.47603641     0.08500
C177        C  0.32547957  0.49816991  0.45326367    -0.04600
H178        H  0.37015973  0.52571817  0.48633306     0.09200
H179        H  0.31127904  0.48458558  0.44875984     0.10400
Cu180      Cu  0.36472249  0.56218684  0.43115593     0.44200
Cu181      Cu  0.31494454  0.52801836  0.39979310     0.42000
Cu182      Cu  0.34265992  0.58061835  0.36330436     0.43900
N183        N  0.37918240  0.59164731  0.40857627    -0.33200
N184        N  0.37162488  0.59800952  0.38346194    -0.27500
C185        C  0.38537864  0.61720610  0.37423485    -0.03600
C186        C  0.40224055  0.62330706  0.39460468     0.08600
C187        C  0.39781541  0.60669936  0.41610411     0.02400
H188        H  0.38318530  0.62613318  0.35422047     0.10100
H189        H  0.40758996  0.60526549  0.43560164     0.09200
N190        N  0.31193448  0.56142939  0.34938788    -0.34700
N191        N  0.30179198  0.54238630  0.36271859    -0.26800
C192        C  0.28177783  0.53471612  0.34864644    -0.02100
C193        C  0.27936886  0.54963688  0.32546723     0.06500
C194        C  0.29864391  0.56638534  0.32648071     0.04600
H195        H  0.26975566  0.51963119  0.35504040     0.09700
H196        H  0.30255120  0.58128666  0.31192165     0.08600
N197        N  0.67652365  0.55226342  0.34757419    -0.25800
N198        N  0.66557444  0.57160149  0.33565106    -0.33700
C199        C  0.67897058  0.57882505  0.31351931     0.02500
C200        C  0.69916655  0.56326597  0.31156667     0.08500
C201        C  0.69714709  0.54665968  0.33332919    -0.04600
H202        H  0.67436524  0.59429012  0.29998978     0.09200
H203        H  0.70973149  0.53167456  0.33852979     0.10400
Cu204      Cu  0.63340915  0.58793319  0.35019000     0.44200
Cu205      Cu  0.66364335  0.53446677  0.38296481     0.42000
Cu206      Cu  0.61164949  0.56354929  0.41580112     0.43900
N207        N  0.60337371  0.60235417  0.37142823    -0.33200
N208        N  0.59600388  0.59382286  0.39583386    -0.27500
C209        C  0.57693139  0.60764689  0.40483345    -0.03600
C210        C  0.57200365  0.62573493  0.38506145     0.08600
C211        C  0.58899617  0.62174999  0.36409552     0.02400
H212        H  0.56728761  0.60448983  0.42420160     0.10100
H213        H  0.59101717  0.63239958  0.34511939     0.09200
N214        N  0.62872992  0.53201212  0.43138373    -0.34700
N215        N  0.64778876  0.52112140  0.41923053    -0.26800
C216        C  0.65441244  0.50096962  0.43418567    -0.02100
C217        C  0.63872031  0.49926614  0.45670536     0.06500
C218        C  0.62266348  0.51913001  0.45438541     0.04600
H219        H  0.66945222  0.48851860  0.42899356     0.09700
H220        H  0.60763334  0.52383883  0.46824208     0.08600
O221        O  0.95778347  0.74427463  0.12217308    -0.71500
O222        O  0.01103202  0.69244120  0.12078859    -0.72500
O223        O  0.95892335  0.69124064  0.12458903    -0.61100
O224        O  0.00974045  0.74551239  0.11848102    -0.69500
O225        O  0.01229217  0.74694622  0.16444021    -0.69000
O226        O  0.96135259  0.69283298  0.17055113    -0.60300
O227        O  0.01381334  0.69385039  0.16673411    -0.72800
O228        O  0.95998559  0.74577402  0.16816221    -0.71600
Cu229      Cu  0.98429612  0.71828975  0.11992802     1.04600
Cu230      Cu  0.98696798  0.71989287  0.16910102     1.04300
C231        C  0.95053604  0.75327326  0.14529827     0.94700
C232        C  0.02078764  0.68489959  0.14340921     0.93900
C233        C  0.95213774  0.68347609  0.14853136     0.86000
C234        C  0.01884123  0.75495512  0.14051440     0.92300
N235        N  0.13679000  0.91182300  0.11450001    -0.25800
N236        N  0.11842202  0.89931467  0.10296920    -0.33700
C237        C  0.11297042  0.90983817  0.07832920     0.02500
C238        C  0.12867584  0.92979361  0.07432518     0.08500
C239        C  0.14350766  0.93060788  0.09753191    -0.04600
H240        H  0.09873281  0.90335117  0.06437955     0.09200
H241        H  0.15823450  0.94369871  0.10170618     0.10400
Cu242      Cu  0.10169717  0.86830881  0.12089495     0.44200
Cu243      Cu  0.15288801  0.90228022  0.15202969     0.42000
Cu244      Cu  0.12607400  0.84909073  0.18705691     0.43900
N245        N  0.08790141  0.83831683  0.14350074    -0.33200
N246        N  0.09649270  0.83182644  0.16814605    -0.27500
C247        C  0.08380184  0.81200216  0.17758189    -0.03600
C248        C  0.06656044  0.80548137  0.15783130     0.10600
C249        C  0.06958963  0.82260048  0.13646278     0.02400
H250        H  0.08720427  0.80272526  0.19718088     0.10100
H251        H  0.05923508  0.82371917  0.11731935     0.09200
N252        N  0.15805376  0.86652224  0.19990277    -0.34700
N253        N  0.16789180  0.88606575  0.18723262    -0.26800
C254        C  0.18945134  0.89171025  0.19952830    -0.02100
C255        C  0.19318491  0.87485463  0.22079546     0.06500
C256        C  0.17305603  0.85916421  0.22054632     0.04600
H257        H  0.20181714  0.90641096  0.19285919     0.09700
H258        H  0.16989305  0.84310918  0.23375044     0.08600
N259        N  0.13868941  0.53049951  0.11679518    -0.25800
N260        N  0.12130232  0.54448488  0.10542090    -0.33700
C261        C  0.11398647  0.53391148  0.08152004     0.02500
C262        C  0.12748975  0.51234100  0.07788100     0.08500
C263        C  0.14297118  0.51065080  0.10047659    -0.04600
H264        H  0.09960414  0.54113541  0.06816677     0.09200
H265        H  0.15602132  0.49590689  0.10502893     0.10400
Cu266      Cu  0.10739430  0.57633080  0.12392884     0.44200
Cu267      Cu  0.15478573  0.53846400  0.15454768     0.42000
Cu268      Cu  0.12946419  0.59139064  0.19272898     0.43900
N269        N  0.09395484  0.60564850  0.14739368    -0.33200
N270        N  0.10149412  0.61099551  0.17277365    -0.27500
C271        C  0.08819982  0.63038292  0.18243836    -0.03600
C272        C  0.07163819  0.63762041  0.16208919     0.08600
C273        C  0.07582553  0.62147054  0.14016692     0.02400
H274        H  0.09036477  0.63854960  0.20280681     0.10100
H275        H  0.06613757  0.62077143  0.12057707     0.09200
N276        N  0.15852804  0.56933234  0.20661070    -0.34700
N277        N  0.16768031  0.55018297  0.19264936    -0.26800
C278        C  0.18678895  0.54047696  0.20680556    -0.02100
C279        C  0.18969969  0.55417398  0.23072711     0.06500
C280        C  0.17163017  0.57231211  0.23006247     0.04600
H281        H  0.19797376  0.52493946  0.19988299     0.09700
H282        H  0.16852313  0.58689665  0.24517345     0.08600
N283        N  0.81355379  0.89243101  0.12408768    -0.25800
N284        N  0.83502309  0.88471299  0.11415097    -0.33700
C285        C  0.84098596  0.89859446  0.09183637     0.02500
C286        C  0.82235763  0.91572317  0.08761315     0.08500
C287        C  0.80526746  0.91142873  0.10833528    -0.04600
H288        H  0.85787677  0.89669669  0.08000432     0.09200
H289        H  0.78840651  0.92171366  0.11214824     0.10400
Cu290      Cu  0.85596898  0.85656408  0.13197475     0.44200
Cu291      Cu  0.79737084  0.87807731  0.15971086     0.42000
Cu292      Cu  0.83465170  0.83335582  0.19787781     0.43900
N293        N  0.87392851  0.82877911  0.15411263    -0.33200
N294        N  0.86645140  0.82073234  0.17867289    -0.27500
C295        C  0.88179883  0.80265320  0.18749551    -0.03600
C296        C  0.89960155  0.79892176  0.16736446     0.08600
C297        C  0.89411327  0.81587388  0.14648957     0.02400
H298        H  0.87969682  0.79245373  0.20676201     0.10100
H299        H  0.90391102  0.81862776  0.12714162     0.09200
N300        N  0.80093208  0.84669698  0.21155509    -0.34700
N301        N  0.78713594  0.86273872  0.19754029    -0.26800
C302        C  0.76658501  0.86763916  0.21227453    -0.02100
C303        C  0.76764668  0.85398631  0.23654938     0.06500
C304        C  0.78955092  0.84093996  0.23553952     0.04600
H305        H  0.75218247  0.88043786  0.20594249     0.09700
H306        H  0.79683674  0.82839361  0.25114878     0.08600
N307        N  0.82689017  0.52924034  0.09752689    -0.25800
N308        N  0.84496295  0.54048280  0.08389392    -0.33700
C309        C  0.84798811  0.52928149  0.05915935     0.02500
C310        C  0.83097472  0.51021318  0.05730986     0.08500
C311        C  0.81790415  0.51059974  0.08187906    -0.04600
H312        H  0.86180635  0.53437896  0.04392983     0.09200
H313        H  0.80324753  0.49807373  0.08814629     0.10400
Cu314      Cu  0.86514073  0.56995474  0.09999242     0.44200
Cu315      Cu  0.81561383  0.53939870  0.13690431     0.42000
Cu316      Cu  0.84932842  0.58944144  0.16994279     0.43900
N317        N  0.88274621  0.59867032  0.12088264    -0.33200
N318        N  0.87726901  0.60547210  0.14653261    -0.27500
C319        C  0.89183886  0.62466395  0.15384826    -0.03600
C320        C  0.90718858  0.63024167  0.13165390     0.08600
C321        C  0.90087167  0.61344140  0.11114533     0.02400
H322        H  0.89084505  0.63411514  0.17362933     0.10100
H323        H  0.90877451  0.61213887  0.09055535     0.09200
N324        N  0.81881186  0.57219643  0.18743517    -0.34700
N325        N  0.80653904  0.55390504  0.17528554    -0.26800
C326        C  0.78704232  0.54766178  0.19112394    -0.02100
C327        C  0.78715382  0.56275931  0.21422995     0.06500
C328        C  0.80742258  0.57811481  0.21136728     0.04600
H329        H  0.77349073  0.53364031  0.18581362     0.09700
H330        H  0.81312756  0.59289294  0.22521442     0.08600
O331        O  0.95368684  0.24489314  0.93287850    -0.71500
O332        O  0.00605463  0.19178796  0.93499424    -0.72500
O333        O  0.00586650  0.24483128  0.93689300    -0.61100
O334        O  0.95399871  0.19173911  0.93112181    -0.69500
O335        O  0.95641693  0.19332141  0.88513639    -0.69000
O336        O  0.00890966  0.24597992  0.89093899    -0.60300
O337        O  0.00870133  0.19309147  0.88901941    -0.72800
O338        O  0.95640710  0.24616907  0.88690500    -0.71600
Cu339      Cu  0.97979845  0.21828750  0.93557299     1.04600
Cu340      Cu  0.98271426  0.21972064  0.88639102     1.04300
C341        C  0.94673603  0.25383227  0.90955809     0.94700
C342        C  0.01551425  0.18396492  0.91232320     0.93900
C343        C  0.01569136  0.25365054  0.91485810     0.86000
C344        C  0.94710708  0.18407648  0.90725439     0.92300
N345        N  0.13465701  0.40814421  0.93823356    -0.25800
N346        N  0.11731901  0.39470806  0.95055530    -0.33700
C347        C  0.11024659  0.40626686  0.97401760     0.02500
C348        C  0.12383178  0.42790440  0.97637292     0.08500
C349        C  0.13912318  0.42860366  0.95350059    -0.04600
H350        H  0.09628006  0.39942057  0.98819385     0.09200
H351        H  0.15252348  0.44284682  0.94832292     0.10400
Cu352      Cu  0.10369547  0.36168370  0.93456460     0.44200
Cu353      Cu  0.15152397  0.39817296  0.90134538     0.42000
Cu354      Cu  0.12822827  0.34249649  0.86800143     0.43900
N355        N  0.09085928  0.33117829  0.91266667    -0.33200
N356        N  0.09942322  0.32444452  0.88808672    -0.27500
C357        C  0.08614601  0.30499311  0.87878012    -0.03600
C358        C  0.06848141  0.29915463  0.89848425     0.08600
C359        C  0.07201190  0.31613934  0.91973813     0.02400
H360        H  0.08894291  0.29596963  0.85895240     0.10100
H361        H  0.06127926  0.31803854  0.93856620     0.09200
N362        N  0.15748189  0.36341436  0.85280106    -0.34700
N363        N  0.16598262  0.38376388  0.86499038    -0.26800
C364        C  0.18560756  0.39227628  0.85069336    -0.02100
C365        C  0.18950387  0.37650865  0.82853859     0.06500
C366        C  0.17147107  0.35842564  0.83040208     0.04600
H367        H  0.19655265  0.40833416  0.85644860     0.09700
H368        H  0.16905959  0.34247154  0.81694863     0.08600
N369        N  0.14027561  0.03226272  0.93068475    -0.25800
N370        N  0.12134351  0.04354836  0.94269235    -0.33700
C371        C  0.11555992  0.03131603  0.96623780     0.02500
C372        C  0.13162318  0.01148896  0.96904938     0.08500
C373        C  0.14705596  0.01254785  0.94626956    -0.04600
H374        H  0.10059226  0.03632461  0.98004813     0.09200
H375        H  0.16189198  0.99981457  0.94118217     0.10400
Cu376      Cu  0.10360399  0.07447640  0.92607790     0.44200
Cu377      Cu  0.15547098  0.04362575  0.89322009     0.42000
Cu378      Cu  0.12438476  0.09437893  0.85800316     0.43900
N379        N  0.08814118  0.10403974  0.90430274    -0.33200
N380        N  0.09536723  0.11088351  0.87918721    -0.27500
C381        C  0.08153744  0.13029042  0.87070232    -0.03600
C382        C  0.06498490  0.13611503  0.89154823     0.08600
C383        C  0.06962695  0.11904410  0.91256184     0.02400
H384        H  0.08362188  0.13969670  0.85094181     0.10100
H385        H  0.06021957  0.11743661  0.93230605     0.09200
N386        N  0.15522556  0.07639503  0.84226058    -0.34700
N387        N  0.16667268  0.05793937  0.85523550    -0.26800
C388        C  0.18613997  0.05062734  0.83991062    -0.02100
C389        C  0.18686892  0.06519432  0.81628846     0.06500
C390        C  0.16711456  0.08134358  0.81833069     0.04600
H391        H  0.19884004  0.03589865  0.84563833     0.09700
H392        H  0.16183995  0.09571690  0.80367105     0.08600
N393        N  0.81755966  0.03350512  0.95933508    -0.25800
N394        N  0.83773937  0.04195067  0.97156629    -0.33700
C395        C  0.84282253  0.02743043  0.99366541     0.02500
C396        C  0.82496969  0.00912172  0.99525658     0.08500
C397        C  0.80925574  0.01342221  0.97328919    -0.04600
H398        H  0.85859974  0.02974154  0.00715638     0.09200
H399        H  0.79331515  0.00247526  0.96745872     0.10400
Cu400      Cu  0.85825241  0.07186489  0.95671248     0.44200
Cu401      Cu  0.80313212  0.04828073  0.92309935     0.42000
Cu402      Cu  0.83906565  0.09626342  0.88969578     0.43900
N403        N  0.87617452  0.10072182  0.93610122    -0.33200
N404        N  0.86941506  0.10920426  0.91145691    -0.27500
C405        C  0.88461647  0.12783452  0.90386037    -0.03600
C406        C  0.90172536  0.13133429  0.92481466     0.08600
C407        C  0.89579148  0.11387528  0.94492010     0.02400
H408        H  0.88280269  0.13842974  0.88483805     0.10100
H409        H  0.90491454  0.11109751  0.96465412     0.09200
N410        N  0.80744183  0.08105649  0.87249938    -0.34700
N411        N  0.79415485  0.06360531  0.88495799    -0.26800
C412        C  0.77517053  0.05728980  0.86847096    -0.02100
C413        C  0.77666221  0.07145818  0.84460038     0.06500
C414        C  0.79724559  0.08635157  0.84771246     0.04600
H415        H  0.76152492  0.04320604  0.87337512     0.09700
H416        H  0.80443858  0.09982562  0.83301547     0.08600
N417        N  0.79006944  0.37105592  0.84805963    -0.25800
N418        N  0.80128031  0.35188819  0.83617976    -0.33700
C419        C  0.78804456  0.34463896  0.81399762     0.02500
C420        C  0.76764864  0.35998079  0.81198171     0.08500
C421        C  0.76943077  0.37650614  0.83378033    -0.04600
H422        H  0.79286850  0.32928019  0.80048148     0.09200
H423        H  0.75667849  0.39134054  0.83897171     0.10400
Cu424      Cu  0.83363928  0.33596002  0.85110954     0.44200
Cu425      Cu  0.80297143  0.38884707  0.88330944     0.42000
Cu426      Cu  0.85737617  0.36233663  0.91489622     0.43900
N427        N  0.86422939  0.32203307  0.87201705    -0.33200
N428        N  0.87244001  0.33134926  0.89565471    -0.27500
C429        C  0.89171938  0.31766972  0.90446774    -0.03600
C430        C  0.89592743  0.29886932  0.88537138     0.08600
C431        C  0.87826438  0.30228558  0.86501649     0.02400
H432        H  0.90201357  0.32139460  0.92322733     0.10100
H433        H  0.87559497  0.29103404  0.84664748     0.09200
N434        N  0.83921711  0.39336225  0.93031328    -0.34700
N435        N  0.81926014  0.40309307  0.91877131    -0.26800
C436        C  0.81183014  0.42283497  0.93384022    -0.02100
C437        C  0.82791676  0.42550661  0.95579219     0.06500
C438        C  0.84505605  0.40663665  0.95302716     0.04600
H439        H  0.79588660  0.43426966  0.92918874     0.09700
H440        H  0.86054154  0.40274515  0.96652393     0.08600
C441        C  0.03494499  0.27291906  0.91745981    -0.15000
C442        C  0.04928809  0.27975341  0.89598135    -0.30100
H443        H  0.03770107  0.28121159  0.93775886     0.14100
H444        H  0.04718497  0.27064051  0.87600086     0.14600
C445        C  0.03421883  0.16397725  0.91340087    -0.15000
C446        C  0.04648147  0.15633552  0.89069166    -0.30100
H447        H  0.03803239  0.15549895  0.93342775     0.14100
H448        H  0.04324497  0.16545202  0.87086022     0.14600
C449        C  0.92812623  0.16450222  0.90491382    -0.15000
C450        C  0.92122830  0.15047536  0.92674916    -0.30100
H451        H  0.92000978  0.16132703  0.88463844     0.14100
H452        H  0.93024111  0.15293156  0.94669006     0.14600
C453        C  0.92747355  0.27329263  0.90912640    -0.15000
C454        C  0.91520961  0.27938329  0.88583839    -0.30100
H455        H  0.92282279  0.28228216  0.92862486     0.14100
H456        H  0.91888319  0.26934867  0.86670033     0.14600
C457        C  0.82856604  0.49250367  0.03517753    -0.17000
C458        C  0.82730962  0.47735921  0.01679599     0.07000
C459        C  0.82676965  0.45943172  0.99542017     0.08900
C460        C  0.82700049  0.44401531  0.97726144    -0.17900
C461        C  0.82188736  0.93527680  0.06718979    -0.17000
C462        C  0.82208077  0.95198523  0.05040651     0.07000
C463        C  0.82283378  0.97182804  0.03112029     0.08900
C464        C  0.82374444  0.98888434  0.01480413    -0.17900
C465        C  0.12270904  0.44590437  0.99829868    -0.17000
C466        C  0.12265751  0.46124822  0.01649809     0.07000
C467        C  0.12360934  0.47929095  0.03767637     0.08900
C468        C  0.12512284  0.49456434  0.05586554    -0.17900
C469        C  0.13167518  0.99310065  0.99081590    -0.17000
C470        C  0.13125866  0.97794210  0.00934801     0.07000
C471        C  0.13039461  0.96064608  0.03148932     0.08900
C472        C  0.12955072  0.94633355  0.05081762    -0.17900
C473        C  0.03673001  0.77557613  0.13798010    -0.15000
C474        C  0.04893110  0.78459489  0.16001979    -0.30100
H475        H  0.03997960  0.78338802  0.11748025     0.14100
H476        H  0.04640680  0.77606173  0.18030793     0.14600
C477        C  0.93121055  0.77263034  0.14504307    -0.15000
C478        C  0.91944194  0.78004238  0.16814500    -0.30100
H479        H  0.92604861  0.78042413  0.12505125     0.14100
H480        H  0.92367955  0.77132270  0.18795553     0.14600
C481        C  0.03998972  0.66542177  0.14195974    -0.15000
C482        C  0.05298555  0.65772310  0.16414036    -0.30100
H483        H  0.04352692  0.65728018  0.12173482     0.14100
H484        H  0.05003297  0.66641190  0.18422420     0.14600
C485        C  0.93346369  0.66359193  0.15114304    -0.15000
C486        C  0.92581422  0.65023231  0.12921947    -0.30100
H487        H  0.92629371  0.65955418  0.17172466     0.14100
H488        H  0.93374206  0.65369832  0.10883952     0.14600
C489        C  0.71833332  0.56403327  0.29102561    -0.17000
C490        C  0.73441357  0.56421649  0.27375358     0.07000
C491        C  0.75311266  0.56396992  0.25339934     0.08900
C492        C  0.76886047  0.56349699  0.23575231    -0.17900
C493        C  0.26011901  0.54871964  0.30510559    -0.17000
C494        C  0.24389721  0.54866797  0.28806028     0.07000
C495        C  0.22488918  0.54960218  0.26816081     0.08900
C496        C  0.20871790  0.55127912  0.25115024    -0.17900
C497        C  0.70529675  0.85471892  0.32011216    -0.17000
C498        C  0.71928877  0.85450168  0.30066965     0.07000
C499        C  0.73578694  0.85425096  0.27802246     0.08900
C500        C  0.75012331  0.85410449  0.25889849    -0.17900
C501        C  0.54020507  0.75959608  0.40652810    -0.15000
C502        C  0.54800216  0.77218271  0.42892454    -0.30100
H503        H  0.54786852  0.76369473  0.38618723     0.14100
H504        H  0.53955227  0.76881492  0.44905883     0.14600
C505        C  0.43399669  0.65058152  0.41510642    -0.15000
C506        C  0.42109273  0.64308148  0.39286392    -0.30100
H507        H  0.43039426  0.64243366  0.43536213     0.14100
H508        H  0.42406093  0.65197228  0.37284353     0.14600
C509        C  0.55274271  0.64516007  0.38559533    -0.15000
C510        C  0.54097161  0.65156302  0.40909824    -0.30100
H511        H  0.54860958  0.65480849  0.36629189     0.14100
H512        H  0.54596007  0.64285224  0.42867340     0.14600
C513        C  0.26829378  0.86595269  0.28867351    -0.17000
C514        C  0.25200121  0.86784745  0.27183983     0.07000
C515        C  0.23205050  0.87049493  0.25334282     0.08900
C516        C  0.21448780  0.87273478  0.23826545    -0.17900
C517        C  0.42113598  0.76705866  0.38967693    -0.15000
C518        C  0.43327580  0.75965860  0.41257334    -0.30100
H519        H  0.42472769  0.75796288  0.36994531     0.14100
H520        H  0.42915606  0.76810739  0.43250701     0.14600
C521        C  0.74848011  0.35900377  0.79141468    -0.17000
C522        C  0.73254164  0.35840640  0.77398272     0.07000
C523        C  0.71424257  0.35790969  0.75314182     0.08900
C524        C  0.69910169  0.35759621  0.73482490    -0.17900
C525        C  0.63768050  0.43032542  0.53450338    -0.17000
C526        C  0.63827548  0.44617564  0.51672877     0.07000
C527        C  0.63867329  0.46471425  0.49588521     0.08900
C528        C  0.63881704  0.48049209  0.47802103    -0.17900
C529        C  0.20949363  0.37739130  0.80897163    -0.17000
C530        C  0.22640236  0.37733539  0.79269962     0.07000
C531        C  0.24613339  0.37650192  0.77358712     0.08900
C532        C  0.26274162  0.37537133  0.75697559    -0.17900
C533        C  0.34170535  0.43513874  0.55936866    -0.17000
C534        C  0.34173859  0.44959194  0.54016567     0.07000
C535        C  0.34159430  0.46662502  0.51778528     0.08900
C536        C  0.34132504  0.48121401  0.49871409    -0.17900
C537        C  0.76035779  0.07032493  0.82114464    -0.17000
C538        C  0.74607670  0.06875362  0.80206258     0.07000
C539        C  0.72863457  0.06654782  0.78046094     0.08900
C540        C  0.71317479  0.06475727  0.76260076    -0.17900
C541        C  0.64051763  0.93565416  0.51524389    -0.17000
C542        C  0.64038273  0.95227989  0.53203738     0.07000
C543        C  0.63996146  0.97146623  0.55203400     0.08900
C544        C  0.63948989  0.98746713  0.56955757    -0.17900
C545        C  0.43094582  0.26429093  0.64825092    -0.15000
C546        C  0.42019148  0.27416674  0.67084488    -0.30100
H547        H  0.42674255  0.27175683  0.62782898     0.14100
H548        H  0.42357891  0.26605997  0.69117464     0.14600
C549        C  0.54484938  0.14272471  0.67376159    -0.15000
C550        C  0.53169071  0.14923718  0.65125740    -0.30100
H551        H  0.54195311  0.15243911  0.69326668     0.14100
H552        H  0.53526956  0.14025601  0.63148545     0.14600
C553        C  0.53740377  0.25659619  0.64875479    -0.15000
C554        C  0.54581427  0.26760126  0.62553368    -0.30100
H555        H  0.54535568  0.26136585  0.66871661     0.14100
H556        H  0.53720590  0.26365868  0.60566696     0.14600
C557        C  0.25402331  0.06041279  0.73758196    -0.17000
C558        C  0.23834486  0.06155612  0.75531009     0.07000
C559        C  0.22014418  0.06292950  0.77623997     0.08900
C560        C  0.20482028  0.06403651  0.79435918    -0.17900
C561        C  0.32893268  0.97459557  0.54968566    -0.17000
C562        C  0.32925407  0.95898986  0.53173925     0.07000
C563        C  0.33033568  0.94118394  0.51027475     0.08900
C564        C  0.33165068  0.92644522  0.49149732    -0.17900
C565        C  0.42377395  0.15509727  0.65529241    -0.15000
C566        C  0.41652028  0.14126783  0.63358889    -0.30100
H567        H  0.41523950  0.15235738  0.67548289     0.14100
H568        H  0.42592252  0.14311922  0.61374838     0.14600
loop_ 
_geom_bond_atom_site_label_1 
_geom_bond_atom_site_label_2 
_geom_bond_distance 
_geom_bond_site_symmetry_2 
_ccdc_geom_bond_type 
N1            N2   1.324       .  A
N1            C5   1.345       .  A
N1           Cu9   2.072       .  S
N2            C3   1.345       .  A
N2           Cu8   2.076       .  S
C3            C4   1.379       .  A
C3            H6   1.082       .  S
C4            C5   1.379       .  A
C4          C557   1.436       .  S
C5            H7   1.082       .  S
Cu8          N11   2.075       .  S
Cu9          N19   2.071       .  S
Cu10         N12   2.069       .  S
Cu10         N18   2.069       .  S
N11          N12   1.322       .  A
N11          C15   1.345       .  A
N12          C13   1.344       .  A
C13          C14   1.381       .  A
C13          H16   1.082       .  S
C14          C15   1.387       .  A
C14         C566   1.477       .  S
C15          H17   1.081       .  S
N18          N19   1.323       .  A
N18          C22   1.344       .  A
N19          C20   1.346   1_545  A
C20          C21   1.379       .  A
C20          H23   1.082       .  S
C21          C22   1.378   1_565  A
C21         C561   1.435       .  S
C22          H24   1.082       .  S
O25         Cu33   2.003       .  S
O25          C35   1.276       .  A
O26         Cu33   1.998       .  S
O26          C36   1.276       .  A
O27         Cu33   2.017       .  S
O27          C37   1.279       .  A
O28         Cu33   2.018       .  S
O28          C38   1.279       .  A
O29         Cu34   2.003       .  S
O29          C38   1.276       .  A
O30         Cu34   2.004       .  S
O30          C37   1.276       .  A
O31         Cu34   2.015       .  S
O31          C36   1.279       .  A
O32         Cu34   2.016       .  S
O32          C35   1.279       .  A
Cu33        Cu34   2.375       .  S
C35         C565   1.474       .  S
C36         C553   1.471       .  S
C37         C545   1.475       .  S
C38         C550   1.475       .  S
N39          N40   1.323       .  A
N39          C43   1.346       .  A
N39         Cu47   2.074       .  S
N40          C41   1.345       .  A
N40         Cu46   2.074       .  S
C41          C42   1.379       .  A
C41          H44   1.082       .  S
C42          C43   1.380       .  A
C42         C540   1.437       .  S
C43          H45   1.082       .  S
Cu46         N49   2.075       .  S
Cu47         N57   2.074       .  S
Cu48         N50   2.073       .  S
Cu48         N56   2.073       .  S
N49          N50   1.322       .  A
N49          C53   1.346       .  A
N50          C51   1.344       .  A
C51          C52   1.386       .  A
C51          H54   1.081       .  S
C52          C53   1.383       .  A
C52         C549   1.479       .  S
C53          H55   1.082       .  S
N56          N57   1.323       .  A
N56          C60   1.345       .  A
N57          C58   1.345       .  A
C58          C59   1.379       .  A
C58          H61   1.082   1_545  S
C59          C60   1.379       .  A
C59         C544   1.436   1_545  S
C60          H62   1.082       .  S
N63          N64   1.323       .  A
N63          C67   1.344       .  A
N63         Cu71   2.069       .  S
N64          C65   1.345       .  A
N64         Cu70   2.073       .  S
C65          C66   1.380       .  A
C65          H68   1.082       .  S
C66          C67   1.378       .  A
C66         C532   1.435       .  S
C67          H69   1.082       .  S
Cu70         N73   2.073       .  S
Cu71         N81   2.069       .  S
Cu72         N74   2.075       .  S
Cu72         N80   2.075       .  S
N73          N74   1.322       .  A
N73          C77   1.345       .  A
N74          C75   1.345       .  A
C75          C76   1.386       .  A
C75          H78   1.082       .  S
C76          C77   1.382       .  A
C76         C546   1.478       .  S
C77          H79   1.082       .  S
N80          N81   1.323       .  A
N80          C84   1.346       .  A
N81          C82   1.345       .  A
C82          C83   1.378       .  A
C82          H85   1.082       .  S
C83          C84   1.380       .  A
C83         C533   1.436       .  S
C84          H86   1.082       .  S
N87          N88   1.323       .  A
N87          C91   1.345       .  A
N87         Cu95   2.073       .  S
N88          C89   1.346       .  A
N88         Cu94   2.071       .  S
C89          C90   1.380       .  A
C89          H92   1.082       .  S
C90          C91   1.380       .  A
C90         C524   1.437       .  S
C91          H93   1.082       .  S
Cu94         N97   2.071       .  S
Cu95        N105   2.073       .  S
Cu96         N98   2.071       .  S
Cu96        N104   2.072       .  S
N97          N98   1.322       .  A
N97         C101   1.343       .  A
N98          C99   1.346       .  A
C99         C100   1.382       .  A
C99         H102   1.082       .  S
C100        C101   1.385       .  A
C100        C554   1.476       .  S
C101        H103   1.081       .  S
N104        N105   1.323       .  A
N104        C108   1.345       .  A
N105        C106   1.345       .  A
C106        C107   1.379       .  A
C106        H109   1.082       .  S
C107        C108   1.379       .  A
C107        C525   1.436       .  S
C108        H110   1.082       .  S
N111        N112   1.323       .  A
N111        C115   1.343       .  A
N111       Cu119   2.065       .  S
N112        C113   1.346       .  A
N112       Cu118   2.073       .  S
C113        C114   1.380       .  A
C113        H116   1.082       .  S
C114        C115   1.377       .  A
C114        C513   1.434       .  S
C115        H117   1.082       .  S
Cu118       N121   2.073       .  S
Cu119       N129   2.066       .  S
Cu120       N122   2.071       .  S
Cu120       N128   2.071       .  S
N121        N122   1.322       .  A
N121        C125   1.345       .  A
N122        C123   1.344       .  A
C123        C124   1.385       .  A
C123        H126   1.081       .  S
C124        C125   1.382       .  A
C124        C517   1.476       .  S
C125        H127   1.082       .  S
N128        N129   1.322       .  A
N128        C132   1.345       .  A
N129        C130   1.344       .  A
C130        C131   1.378       .  A
C130        H133   1.082       .  S
C131        C132   1.379       .  A
C131        C564   1.435       .  S
C132        H134   1.082       .  S
O135       Cu143   2.004       .  S
O135        C145   1.276       .  A
O136       Cu143   2.006       .  S
O136        C146   1.278       .  A
O137       Cu143   2.004       .  S
O137        C147   1.278       .  A
O138       Cu143   2.002       .  S
O138        C148   1.277       .  A
O139       Cu144   2.010       .  S
O139        C148   1.277       .  A
O140       Cu144   2.011       .  S
O140        C147   1.277       .  A
O141       Cu144   2.004       .  S
O141        C146   1.276       .  A
O142       Cu144   2.004       .  S
O142        C145   1.278       .  A
Cu143      Cu144   2.376       .  S
C145        C501   1.471       .  S
C146        C505   1.472       .  S
C147        C518   1.474       .  S
C148        C510   1.472       .  S
N149        N150   1.323       .  A
N149        C153   1.345       .  A
N149       Cu157   2.073       .  S
N150        C151   1.344       .  A
N150       Cu156   2.064       .  S
C151        C152   1.378       .  A
C151        H154   1.082       .  S
C152        C153   1.379       .  A
C152        C497   1.434       .  S
C153        H155   1.082       .  S
Cu156       N159   2.064       .  S
Cu157       N167   2.073       .  S
Cu158       N160   2.070       .  S
Cu158       N166   2.070       .  S
N159        N160   1.322       .  A
N159        C163   1.342       .  A
N160        C161   1.345       .  A
C161        C162   1.382       .  A
C161        H164   1.082       .  S
C162        C163   1.384       .  A
C162        C502   1.473       .  S
C163        H165   1.081       .  S
N166        N167   1.323       .  A
N166        C170   1.345       .  A
N167        C168   1.345       .  A
C168        C169   1.379       .  A
C168        H171   1.082       .  S
C169        C170   1.379       .  A
C169        C541   1.436       .  S
C170        H172   1.082       .  S
N173        N174   1.322       .  A
N173        C177   1.345       .  A
N173       Cu181   2.070       .  S
N174        C175   1.345       .  A
N174       Cu180   2.069       .  S
C175        C176   1.379       .  A
C175        H178   1.082       .  S
C176        C177   1.379       .  A
C176        C536   1.436       .  S
C177        H179   1.082       .  S
Cu180       N183   2.069       .  S
Cu181       N191   2.070       .  S
Cu182       N184   2.070       .  S
Cu182       N190   2.070       .  S
N183        N184   1.322       .  A
N183        C187   1.343       .  A
N184        C185   1.345       .  A
C185        C186   1.382       .  A
C185        H188   1.082       .  S
C186        C187   1.385       .  A
C186        C506   1.474       .  S
C187        H189   1.081       .  S
N190        N191   1.324       .  A
N190        C194   1.344       .  A
N191        C192   1.345       .  A
C192        C193   1.378       .  A
C192        H195   1.082       .  S
C193        C194   1.378       .  A
C193        C493   1.434       .  S
C194        H196   1.082       .  S
N197        N198   1.324       .  A
N197        C201   1.344       .  A
N197       Cu205   2.072       .  S
N198        C199   1.345       .  A
N198       Cu204   2.071       .  S
C199        C200   1.378       .  A
C199        H202   1.082       .  S
C200        C201   1.378       .  A
C200        C489   1.434       .  S
C201        H203   1.082       .  S
Cu204       N207   2.071       .  S
Cu205       N215   2.071       .  S
Cu206       N208   2.066       .  S
Cu206       N214   2.066       .  S
N207        N208   1.322       .  A
N207        C211   1.345       .  A
N208        C209   1.343       .  A
C209        C210   1.383       .  A
C209        H212   1.082       .  S
C210        C211   1.382       .  A
C210        C509   1.473       .  S
C211        H213   1.082       .  S
N214        N215   1.322       .  A
N214        C218   1.344       .  A
N215        C216   1.345       .  A
C216        C217   1.380       .  A
C216        H219   1.082       .  S
C217        C218   1.379       .  A
C217        C528   1.436       .  S
C218        H220   1.082       .  S
O221       Cu229   2.003       .  S
O221        C231   1.276       .  A
O222       Cu229   2.004   1_455  S
O222        C232   1.276       .  A
O223       Cu229   2.010       .  S
O223        C233   1.279       .  A
O224       Cu229   2.008   1_455  S
O224        C234   1.277       .  A
O225       Cu230   2.008   1_455  S
O225        C234   1.279       .  A
O226       Cu230   2.009       .  S
O226        C233   1.277       .  A
O227       Cu230   2.018   1_455  S
O227        C232   1.279       .  A
O228       Cu230   2.015       .  S
O228        C231   1.279       .  A
Cu229      Cu230   2.375       .  S
C231        C477   1.473       .  S
C232        C481   1.475       .  S
C233        C485   1.475       .  S
C234        C473   1.475       .  S
N235        N236   1.324       .  A
N235        C239   1.345       .  A
N235       Cu243   2.071       .  S
N236        C237   1.346       .  A
N236       Cu242   2.078       .  S
C237        C238   1.380       .  A
C237        H240   1.082       .  S
C238        C239   1.379       .  A
C238        C472   1.437       .  S
C239        H241   1.082       .  S
Cu242       N245   2.078       .  S
Cu243       N253   2.071       .  S
Cu244       N246   2.065       .  S
Cu244       N252   2.065       .  S
N245        N246   1.322       .  A
N245        C249   1.346       .  A
N246        C247   1.344       .  A
C247        C248   1.380       .  A
C247        H250   1.082       .  S
C248        C249   1.387       .  A
C248        C474   1.475       .  S
C249        H251   1.082       .  S
N252        N253   1.323       .  A
N252        C256   1.344       .  A
N253        C254   1.345       .  A
C254        C255   1.379       .  A
C254        H257   1.082       .  S
C255        C256   1.377       .  A
C255        C516   1.434       .  S
C256        H258   1.082       .  S
N259        N260   1.322       .  A
N259        C263   1.344       .  A
N259       Cu267   2.064       .  S
N260        C261   1.345       .  A
N260       Cu266   2.068       .  S
C261        C262   1.379       .  A
C261        H264   1.082       .  S
C262        C263   1.378       .  A
C262        C468   1.433       .  S
C263        H265   1.082       .  S
Cu266       N269   2.069       .  S
Cu267       N277   2.064       .  S
Cu268       N270   2.079       .  S
Cu268       N276   2.078       .  S
N269        N270   1.322       .  A
N269        C273   1.343       .  A
N270        C271   1.347       .  A
C271        C272   1.384       .  A
C271        H274   1.082       .  S
C272        C273   1.385       .  A
C272        C482   1.480       .  S
C273        H275   1.081       .  S
N276        N277   1.324       .  A
N276        C280   1.345       .  A
N277        C278   1.344       .  A
C278        C279   1.377       .  A
C278        H281   1.082       .  S
C279        C280   1.379       .  A
C279        C496   1.434       .  S
C280        H282   1.082       .  S
N283        N284   1.323       .  A
N283        C287   1.345       .  A
N283       Cu291   2.072       .  S
N284        C285   1.345       .  A
N284       Cu290   2.072       .  S
C285        C286   1.379       .  A
C285        H288   1.082       .  S
C286        C287   1.379       .  A
C286        C461   1.436       .  S
C287        H289   1.082       .  S
Cu290       N293   2.072       .  S
Cu291       N301   2.072       .  S
Cu292       N294   2.068       .  S
Cu292       N300   2.068       .  S
N293        N294   1.321       .  A
N293        C297   1.344       .  A
N294        C295   1.345       .  A
C295        C296   1.381       .  A
C295        H298   1.082       .  S
C296        C297   1.386       .  A
C296        C478   1.476       .  S
C297        H299   1.082       .  S
N300        N301   1.323       .  A
N300        C304   1.344       .  A
N301        C302   1.345       .  A
C302        C303   1.379       .  A
C302        H305   1.082       .  S
C303        C304   1.378       .  A
C303        C500   1.434       .  S
C304        H306   1.082       .  S
N307        N308   1.323       .  A
N307        C311   1.345       .  A
N307       Cu315   2.066       .  S
N308        C309   1.345       .  A
N308       Cu314   2.074       .  S
C309        C310   1.380       .  A
C309        H312   1.082       .  S
C310        C311   1.378       .  A
C310        C457   1.435       .  S
C311        H313   1.082       .  S
Cu314       N317   2.074       .  S
Cu315       N325   2.066       .  S
Cu316       N318   2.072       .  S
Cu316       N324   2.071       .  S
N317        N318   1.322       .  A
N317        C321   1.345       .  A
N318        C319   1.345       .  A
C319        C320   1.385       .  A
C319        H322   1.081       .  S
C320        C321   1.382       .  A
C320        C486   1.476       .  S
C321        H323   1.082       .  S
N324        N325   1.323       .  A
N324        C328   1.345       .  A
N325        C326   1.344       .  A
C326        C327   1.378       .  A
C326        H329   1.082       .  S
C327        C328   1.379       .  A
C327        C492   1.434       .  S
C328        H330   1.082       .  S
O331       Cu339   2.012       .  S
O331        C341   1.277       .  A
O332       Cu339   2.009   1_455  S
O332        C342   1.277       .  A
O333       Cu339   2.006   1_455  S
O333        C343   1.276       .  A
O334       Cu339   2.007       .  S
O334        C344   1.278       .  A
O335       Cu340   2.009       .  S
O335        C344   1.277       .  A
O336       Cu340   2.012   1_455  S
O336        C343   1.279       .  A
O337       Cu340   2.008   1_455  S
O337        C342   1.278       .  A
O338       Cu340   2.009       .  S
O338        C341   1.278       .  A
Cu339      Cu340   2.375       .  S
C341        C453   1.475       .  S
C342        C445   1.475       .  S
C343        C441   1.474       .  S
C344        C449   1.474       .  S
N345        N346   1.323       .  A
N345        C349   1.344       .  A
N345       Cu353   2.068       .  S
N346        C347   1.345       .  A
N346       Cu352   2.069       .  S
C347        C348   1.379       .  A
C347        H350   1.082       .  S
C348        C349   1.378       .  A
C348        C465   1.433       .  S
C349        H351   1.082       .  S
Cu352       N355   2.069       .  S
Cu353       N363   2.068       .  S
Cu354       N356   2.073       .  S
Cu354       N362   2.073       .  S
N355        N356   1.322       .  A
N355        C359   1.344       .  A
N356        C357   1.345       .  A
C357        C358   1.382       .  A
C357        H360   1.082       .  S
C358        C359   1.385       .  A
C358        C442   1.476       .  S
C359        H361   1.081       .  S
N362        N363   1.323       .  A
N362        C366   1.345       .  A
N363        C364   1.345       .  A
C364        C365   1.379       .  A
C364        H367   1.082       .  S
C365        C366   1.379       .  A
C365        C529   1.435       .  S
C366        H368   1.082       .  S
N369        N370   1.323       .  A
N369        C373   1.346       .  A
N369       Cu377   2.073       .  S
N370        C371   1.345       .  A
N370       Cu376   2.075       .  S
C371        C372   1.379       .  A
C371        H374   1.082       .  S
C372        C373   1.379       .  A
C372        C469   1.437   1_545  S
C373        H375   1.082   1_545  S
Cu376       N379   2.075       .  S
Cu377       N387   2.072       .  S
Cu378       N380   2.071       .  S
Cu378       N386   2.072       .  S
N379        N380   1.322       .  A
N379        C383   1.345       .  A
N380        C381   1.344       .  A
C381        C382   1.381       .  A
C381        H384   1.082       .  S
C382        C383   1.386       .  A
C382        C446   1.476       .  S
C383        H385   1.082       .  S
N386        N387   1.323       .  A
N386        C390   1.345       .  A
N387        C388   1.345       .  A
C388        C389   1.379       .  A
C388        H391   1.082       .  S
C389        C390   1.379       .  A
C389        C560   1.436       .  S
C390        H392   1.082       .  S
N393        N394   1.323       .  A
N393        C397   1.345       .  A
N393       Cu401   2.069       .  S
N394        C395   1.346       .  A
N394       Cu400   2.076       .  S
C395        C396   1.380       .  A
C395        H398   1.082   1_556  S
C396        C397   1.378       .  A
C396        C464   1.436   1_546  S
C397        H399   1.082       .  S
Cu400       N403   2.076       .  S
Cu401       N411   2.069       .  S
Cu402       N404   2.072       .  S
Cu402       N410   2.072       .  S
N403        N404   1.322       .  A
N403        C407   1.345       .  A
N404        C405   1.344       .  A
C405        C406   1.385       .  A
C405        H408   1.081       .  S
C406        C407   1.383       .  A
C406        C450   1.476       .  S
C407        H409   1.082       .  S
N410        N411   1.323       .  A
N410        C414   1.346       .  A
N411        C412   1.344       .  A
C412        C413   1.379       .  A
C412        H415   1.082       .  S
C413        C414   1.380       .  A
C413        C537   1.437       .  S
C414        H416   1.082       .  S
N417        N418   1.324       .  A
N417        C421   1.345       .  A
N417       Cu425   2.072       .  S
N418        C419   1.346       .  A
N418       Cu424   2.078       .  S
C419        C420   1.380       .  A
C419        H422   1.082       .  S
C420        C421   1.379       .  A
C420        C521   1.437       .  S
C421        H423   1.082       .  S
Cu424       N427   2.078       .  S
Cu425       N435   2.072       .  S
Cu426       N428   2.070       .  S
Cu426       N434   2.070       .  S
N427        N428   1.322       .  A
N427        C431   1.346       .  A
N428        C429   1.344       .  A
C429        C430   1.384       .  A
C429        H432   1.082       .  S
C430        C431   1.383       .  A
C430        C454   1.477       .  S
C431        H433   1.082       .  S
N434        N435   1.323       .  A
N434        C438   1.345       .  A
N435        C436   1.345       .  A
C436        C437   1.379       .  A
C436        H439   1.082       .  S
C437        C438   1.379       .  A
C437        C460   1.435       .  S
C438        H440   1.082       .  S
C441        C442   1.343       .  D
C441        H443   1.086       .  S
C442        H444   1.086       .  S
C445        C446   1.343       .  D
C445        H447   1.085       .  S
C446        H448   1.086       .  S
C449        C450   1.344       .  D
C449        H451   1.086       .  S
C450        H452   1.087       .  S
C453        C454   1.344       .  D
C453        H455   1.086       .  S
C454        H456   1.086       .  S
C457        C458   1.205       .  T
C458        C459   1.410   1_554  S
C459        C460   1.205       .  T
C461        C462   1.205       .  T
C462        C463   1.411       .  S
C463        C464   1.205       .  T
C465        C466   1.203   1_556  T
C466        C467   1.408       .  S
C467        C468   1.203       .  T
C469        C470   1.206   1_556  T
C470        C471   1.412       .  S
C471        C472   1.206       .  T
C473        C474   1.343       .  D
C473        H475   1.086       .  S
C474        H476   1.086       .  S
C477        C478   1.342       .  D
C477        H479   1.086       .  S
C478        H480   1.086       .  S
C481        C482   1.344       .  D
C481        H483   1.085       .  S
C482        H484   1.086       .  S
C485        C486   1.343       .  D
C485        H487   1.086       .  S
C486        H488   1.086       .  S
C489        C490   1.204       .  T
C490        C491   1.409       .  S
C491        C492   1.204       .  T
C493        C494   1.204       .  T
C494        C495   1.409       .  S
C495        C496   1.204       .  T
C497        C498   1.204       .  T
C498        C499   1.409       .  S
C499        C500   1.204       .  T
C501        C502   1.343       .  D
C501        H503   1.086       .  S
C502        H504   1.087       .  S
C505        C506   1.343       .  D
C505        H507   1.085       .  S
C506        H508   1.086       .  S
C509        C510   1.344       .  D
C509        H511   1.086       .  S
C510        H512   1.086       .  S
C513        C514   1.204       .  T
C514        C515   1.409       .  S
C515        C516   1.204       .  T
C517        C518   1.344       .  D
C517        H519   1.086       .  S
C518        H520   1.085       .  S
C521        C522   1.206       .  T
C522        C523   1.412       .  S
C523        C524   1.206       .  T
C525        C526   1.205       .  T
C526        C527   1.411       .  S
C527        C528   1.205       .  T
C529        C530   1.205       .  T
C530        C531   1.410       .  S
C531        C532   1.205       .  T
C533        C534   1.205       .  T
C534        C535   1.411       .  S
C535        C536   1.205       .  T
C537        C538   1.206       .  T
C538        C539   1.412       .  S
C539        C540   1.206       .  T
C541        C542   1.205       .  T
C542        C543   1.411       .  S
C543        C544   1.205       .  T
C545        C546   1.343       .  D
C545        H547   1.086       .  S
C546        H548   1.086       .  S
C549        C550   1.344       .  D
C549        H551   1.086       .  S
C550        H552   1.085       .  S
C553        C554   1.342       .  D
C553        H555   1.085       .  S
C554        H556   1.087       .  S
C557        C558   1.205       .  T
C558        C559   1.411       .  S
C559        C560   1.205       .  T
C561        C562   1.204       .  T
C562        C563   1.410       .  S
C563        C564   1.204       .  T
C565        C566   1.342       .  D
C565        H567   1.086       .  S
C566        H568   1.087       .  S
