geometry optimzed in LAMMPS
_audit_creation_date              2020-11-30 
_audit_creation_method            'lammps2cif' 
_symmetry_space_group_name_H-M    'P1' 
_symmetry_Int_Tables_number       1 
_symmetry_cell_setting            triclinic 
loop_ 
_symmetry_equiv_pos_as_xyz 
  x,y,z 
_cell_length_a                    58.01976204 
_cell_length_b                    58.3051833848417 
_cell_length_c                    40.00010078426233 
_cell_angle_alpha                 89.6571476136378 
_cell_angle_beta                  89.8087360860355 
_cell_angle_gamma                 90.05720948606985 
loop_ 
_atom_site_label 
_atom_site_type_symbol 
_atom_site_fract_x 
_atom_site_fract_y 
_atom_site_fract_z 
_atom_site_charge 
N1          N  0.29116989  0.09026269  0.67629627    -0.25800
N2          N  0.27834523  0.07797832  0.65579778    -0.33700
C3          C  0.25800247  0.07343386  0.67063791     0.02500
C4          C  0.25827448  0.08286453  0.70219758     0.08500
C5          C  0.27952592  0.09342477  0.70505219    -0.04600
H6          H  0.24443738  0.06315338  0.65981578     0.09200
H7          H  0.28599802  0.10278223  0.72633492     0.10400
Cu8        Cu  0.29023651  0.06514133  0.61069108     0.44200
Cu9        Cu  0.32373687  0.10225934  0.66377933     0.42000
Cu10       Cu  0.34935835  0.07733011  0.58918818     0.43900
N11         N  0.30785785  0.04875705  0.57248001    -0.33200
N12         N  0.32980717  0.05253884  0.56538042    -0.27500
C13         C  0.33648468  0.03808089  0.54108776    -0.03600
C14         C  0.31774823  0.02460369  0.53248547     0.08600
C15         C  0.29992163  0.03193744  0.55275036     0.02400
H16         H  0.35363078  0.03759239  0.53042144     0.10100
H17         H  0.28254350  0.02520329  0.55358355     0.09200
N18         N  0.36396670  0.10406989  0.61578210    -0.34700
N19         N  0.35465099  0.11313111  0.64290769    -0.26800
C20         C  0.36782824  0.13073828  0.65308514    -0.02100
C21         C  0.38622453  0.13272377  0.63135221     0.06500
C22         C  0.38332897  0.11566585  0.60800040     0.04600
H23         H  0.36400110  0.14155492  0.67427436     0.09700
H24         H  0.39416936  0.11222258  0.58654933     0.08600
O25         O  0.52684447  0.26940794  0.64479805    -0.71500
O26         O  0.47681609  0.22199118  0.65323367    -0.72500
O27         O  0.52573432  0.22078809  0.65058267    -0.61100
O28         O  0.47775535  0.27059075  0.64741183    -0.69500
O29         O  0.47649724  0.26776399  0.59206776    -0.69000
O30         O  0.52440127  0.21800871  0.59523228    -0.60300
O31         O  0.47554683  0.21924100  0.59786177    -0.72800
O32         O  0.52554920  0.26660486  0.58944596    -0.71600
Cu33       Cu  0.50184234  0.24581985  0.65096741     1.04600
Cu34       Cu  0.50045316  0.24282620  0.59171434     1.04300
C35         C  0.53409250  0.27534548  0.61583888     0.94700
C36         C  0.46840819  0.21317668  0.62680437     0.93900
C37         C  0.53249806  0.21156179  0.62339358     0.86000
C38         C  0.46952659  0.27686150  0.61923031     0.92300
N39         N  0.67119705  0.04840037  0.56631904    -0.25800
N40         N  0.69239173  0.04360216  0.57618379    -0.33700
C41         C  0.70105582  0.02705364  0.55642723     0.02500
C42         C  0.68442140  0.02096880  0.53336043     0.08500
C43         C  0.66573421  0.03493519  0.54033427    -0.04600
H44         H  0.71796441  0.01949817  0.55929370     0.09200
H45         H  0.64932409  0.03533038  0.52759850     0.10400
Cu46       Cu  0.70744340  0.05820996  0.61829581     0.44200
Cu47       Cu  0.65037623  0.07276920  0.58880996     0.42000
Cu48       Cu  0.66904399  0.09300770  0.66926679     0.43900
N49         N  0.71583310  0.07051126  0.66559082    -0.33200
N50         N  0.70125394  0.08181732  0.68492950    -0.27500
C51         C  0.71135565  0.08591597  0.71455391    -0.03600
C52         C  0.73346142  0.07702097  0.71367595     0.08600
C53         C  0.73576091  0.06753558  0.68222521     0.02400
H54         H  0.70342353  0.09528085  0.73482211     0.10100
H55         H  0.75071585  0.05878798  0.67233487     0.09200
N56         N  0.64027891  0.10574395  0.64459815    -0.34700
N57         N  0.63357421  0.09845582  0.61492014    -0.26800
C58         C  0.61556993  0.11116467  0.60459404    -0.02100
C59         C  0.61079779  0.12713565  0.62897592     0.06500
C60         C  0.62671549  0.12330335  0.65396152     0.04600
H61         H  0.60704172  0.10930162  0.58074655     0.09700
H62         H  0.62876266  0.13297723  0.67676168     0.08600
N63         N  0.31167418  0.41590912  0.69234706    -0.25800
N64         N  0.29880968  0.43190763  0.67808711    -0.33700
C65         C  0.28196911  0.43795406  0.69960400     0.02500
C66         C  0.28466316  0.42540851  0.72890048     0.08500
C67         C  0.30375697  0.41177972  0.72348117    -0.04600
H68         H  0.26861843  0.45036427  0.69421496     0.09200
H69         H  0.31063383  0.39888699  0.74025386     0.10400
Cu70       Cu  0.30461957  0.44405399  0.62943640     0.44200
Cu71       Cu  0.33728249  0.39799639  0.66731608     0.42000
Cu72       Cu  0.34183420  0.40793043  0.57834401     0.43900
N73         N  0.31342047  0.45145290  0.57973283    -0.33200
N74         N  0.32571743  0.43746232  0.56081037    -0.27500
C75         C  0.32785870  0.44665466  0.53002133    -0.03600
C76         C  0.31687045  0.46765576  0.52957421     0.08600
C77         C  0.30789935  0.47020867  0.56154007     0.02400
H78         H  0.33754516  0.43902033  0.50978931     0.10100
H79         H  0.29802160  0.48456113  0.57084172     0.09200
N80         N  0.36077257  0.38306430  0.60362962    -0.34700
N81         N  0.35932774  0.37979411  0.63633102    -0.26800
C82         C  0.37438706  0.36340663  0.64546066    -0.02100
C83         C  0.38584971  0.35610729  0.61720469     0.06500
C84         C  0.37689138  0.36885723  0.59108509     0.04600
H85         H  0.37698096  0.35748295  0.67085679     0.09700
H86         H  0.38197056  0.36818727  0.56505605     0.08600
N87         N  0.69191670  0.41471371  0.68642562    -0.25800
N88         N  0.69711569  0.43606279  0.67790933    -0.33700
C89         C  0.71223538  0.44448599  0.70022026     0.02500
C90         C  0.71709652  0.42752244  0.72351430     0.08500
C91         C  0.70386570  0.40888038  0.71399697    -0.04600
H92         H  0.71973392  0.46146658  0.69894945     0.09200
H93         H  0.70288995  0.39231900  0.72626022     0.10400
Cu94       Cu  0.68509158  0.45184492  0.63435063     0.44200
Cu95       Cu  0.66869146  0.39449204  0.66019185     0.42000
Cu96       Cu  0.64980083  0.41654799  0.58003176     0.43900
N97         N  0.67485686  0.46166993  0.58637080    -0.33200
N98         N  0.66299507  0.44830770  0.56605845    -0.27500
C99         C  0.66030733  0.45911106  0.53648181    -0.03600
C100        C  0.67078419  0.48039392  0.53837687     0.08600
C101        C  0.67966108  0.48150551  0.57038426     0.02400
H102        H  0.65082449  0.45224965  0.51554805     0.10100
H103        H  0.68911718  0.49563319  0.58116899     0.09200
N104        N  0.63738332  0.38637232  0.60122565    -0.34700
N105        N  0.64428104  0.37831447  0.63052465    -0.26800
C106        C  0.63229433  0.35914369  0.63783871    -0.02100
C107        C  0.61724642  0.35502066  0.61190107     0.06500
C108        C  0.62081852  0.37255592  0.58913586     0.04600
H109        H  0.63401060  0.34930481  0.66071568     0.09700
H110        H  0.61168364  0.37541947  0.56594497     0.08600
N111        N  0.34231722  0.95022684  0.43337968    -0.25800
N112        N  0.32054027  0.95564555  0.42775205    -0.33700
C113        C  0.31429951  0.97256281  0.44861092     0.02500
C114        C  0.33309702  0.97814218  0.46824951     0.08500
C115        C  0.35055531  0.96369221  0.45782279    -0.04600
H116        H  0.29751846  0.98062043  0.44864919     0.09200
H117        H  0.36800695  0.96306405  0.46723328     0.10400
Cu118      Cu  0.30077708  0.94136119  0.38998060     0.44200
Cu119      Cu  0.35969727  0.92469061  0.40757202     0.42000
Cu120      Cu  0.33027468  0.90178740  0.33535287     0.43900
N121        N  0.28668819  0.92892171  0.34597579    -0.33200
N122        N  0.29811771  0.91563747  0.32499128    -0.27500
C123        C  0.28510992  0.91210551  0.29771843    -0.03600
C124        C  0.26438782  0.92345089  0.30199927     0.08600
C125        C  0.26588625  0.93378273  0.33292253     0.02400
H126        H  0.29015035  0.90162051  0.27670470     0.10100
H127        H  0.25303607  0.94449381  0.34471739     0.09200
N128        N  0.36076047  0.88836169  0.35412723    -0.34700
N129        N  0.37155287  0.89681211  0.38042289    -0.26800
C130        C  0.38986453  0.88351162  0.38746943    -0.02100
C131        C  0.39053739  0.86593140  0.36454888     0.06500
C132        C  0.37189919  0.86942528  0.34378773     0.04600
H133        H  0.40136378  0.88605364  0.40836644     0.09700
H134        H  0.36641371  0.85866132  0.32335232     0.08600
O135        O  0.52339584  0.77470588  0.39908639    -0.71500
O136        O  0.47455767  0.72613972  0.41017942    -0.72500
O137        O  0.52370393  0.72629376  0.40869819    -0.61100
O138        O  0.47446955  0.77451021  0.40052768    -0.69500
O139        O  0.47384342  0.76966679  0.34546755    -0.69000
O140        O  0.52306378  0.72145707  0.35364312    -0.60300
O141        O  0.47392707  0.72128899  0.35513371    -0.72800
O142        O  0.52281663  0.76990301  0.34402761    -0.71600
Cu143      Cu  0.49906221  0.75055141  0.40655914     1.04600
Cu144      Cu  0.49839704  0.74536563  0.34763623     1.04300
C145        C  0.53062808  0.78001999  0.36986458     0.94700
C146        C  0.46647489  0.71624010  0.38434813     0.93900
C147        C  0.53115366  0.71640671  0.38240264     0.86000
C148        C  0.46655269  0.77971039  0.37172270     0.92300
N149        N  0.65936940  0.94816721  0.43202589    -0.25800
N150        N  0.68156704  0.95230632  0.42728909    -0.33700
C151        C  0.68832276  0.96895775  0.44830243     0.02500
C152        C  0.66941145  0.97569964  0.46705596     0.08500
C153        C  0.65138651  0.96223529  0.45594984    -0.04600
H154        H  0.70554498  0.97604917  0.44907167     0.09200
H155        H  0.63371347  0.96264220  0.46464244     0.10400
Cu156      Cu  0.70110938  0.93677306  0.39020469     0.44200
Cu157      Cu  0.64087277  0.92335726  0.40614188     0.42000
Cu158      Cu  0.66911043  0.89984290  0.33407801     0.43900
N159        N  0.71420792  0.92434631  0.34547731    -0.33200
N160        N  0.70189818  0.91228160  0.32404617    -0.27500
C161        C  0.71435919  0.90908086  0.29606755    -0.03600
C162        C  0.73560925  0.91938070  0.30030427     0.08600
C163        C  0.73504548  0.92869637  0.33196445     0.02400
H164        H  0.70849853  0.89966801  0.27446622     0.10100
H165        H  0.74847215  0.93859570  0.34384222     0.09200
N166        N  0.63807147  0.88738411  0.35247776    -0.34700
N167        N  0.62761123  0.89601504  0.37899651    -0.26800
C168        C  0.60879354  0.88329119  0.38596517    -0.02100
C169        C  0.60745890  0.86591748  0.36270418     0.06500
C170        C  0.62624553  0.86894440  0.34187915     0.04600
H171        H  0.59739738  0.88604206  0.40702583     0.09700
H172        H  0.63138183  0.85814734  0.32125145     0.08600
N173        N  0.30190131  0.58295854  0.32224169    -0.25800
N174        N  0.29412640  0.56265681  0.33207026    -0.33700
C175        C  0.27729724  0.55602734  0.31095155     0.02500
C176        C  0.27428307  0.57318084  0.28713027     0.08500
C177        C  0.29008121  0.58991888  0.29522071    -0.02600
H178        H  0.26712189  0.54058409  0.31389301     0.09200
H179        H  0.29243246  0.60630954  0.28283960     0.10400
Cu180      Cu  0.30463837  0.54700230  0.37678219     0.44200
Cu181      Cu  0.32710476  0.60163316  0.34656230     0.42000
Cu182      Cu  0.33934396  0.58476621  0.43008586     0.43900
N183        N  0.31413843  0.53919297  0.42606752    -0.33200
N184        N  0.32533646  0.55361821  0.44566599    -0.27500
C185        C  0.32737722  0.54422421  0.47631349    -0.03600
C186        C  0.31741653  0.52270722  0.47604691     0.08600
C187        C  0.30919831  0.52001797  0.44375718     0.02400
H188        H  0.33600307  0.55228235  0.49711802     0.10100
H189        H  0.29990977  0.50542387  0.43403023     0.09200
N190        N  0.35574170  0.61228948  0.40676768    -0.34700
N191        N  0.35142608  0.61823264  0.37547430    -0.26800
C192        C  0.36573204  0.63534970  0.36633423    -0.02100
C193        C  0.37966670  0.64038541  0.39321819     0.06500
C194        C  0.37295456  0.62549877  0.41846223     0.04600
H195        H  0.36633542  0.64309836  0.34169748     0.09700
H196        H  0.38048452  0.62386417  0.44307055     0.08600
N197        N  0.66425303  0.54601577  0.42869119    -0.25800
N198        N  0.67716470  0.53347510  0.40850391    -0.33700
C199        C  0.68155288  0.51320594  0.42356608     0.02500
C200        C  0.67131638  0.51324787  0.45488041     0.08500
C201        C  0.66048978  0.53429416  0.45724905    -0.04600
H202        H  0.69184291  0.49963788  0.41281346     0.09200
H203        H  0.65018619  0.54046671  0.47790917     0.10400
Cu204      Cu  0.68963221  0.54530864  0.36248167     0.44200
Cu205      Cu  0.65097617  0.57800951  0.41646455     0.42000
Cu206      Cu  0.67129431  0.60327131  0.34054018     0.43900
N207        N  0.70285603  0.56401938  0.32206392    -0.33200
N208        N  0.69667679  0.58537653  0.31523562    -0.27500
C209        C  0.70969222  0.59348265  0.28995373    -0.03600
C210        C  0.72460553  0.57641785  0.27998618     0.08600
C211        C  0.71983235  0.55789888  0.30081766     0.02400
H212        H  0.70851993  0.61067546  0.27977350     0.10100
H213        H  0.72867706  0.54157808  0.30146396     0.09200
N214        N  0.64510247  0.61755010  0.36884248    -0.34700
N215        N  0.63759637  0.60825687  0.39707047    -0.26800
C216        C  0.61979920  0.62071526  0.40869915    -0.02100
C217        C  0.61607280  0.63865531  0.38668043     0.06500
C218        C  0.63233334  0.63618456  0.36170165     0.04600
H219        H  0.60992948  0.61661735  0.43094750     0.09700
H220        H  0.63434124  0.64672752  0.33952595     0.08600
O221        O  0.97622851  0.76961015  0.11541436    -0.71500
O222        O  0.02560594  0.72097850  0.11534581    -0.72500
O223        O  0.97641330  0.72064455  0.11652854    -0.61100
O224        O  0.02515566  0.76986861  0.11406256    -0.69500
O225        O  0.02576912  0.77027940  0.16958749    -0.69000
O226        O  0.97683282  0.72091545  0.17204718    -0.60300
O227        O  0.02613653  0.72131549  0.17086343    -0.72800
O228        O  0.97679661  0.76996617  0.17094663    -0.71600
Cu229      Cu  0.00081313  0.74522590  0.11341316     1.04600
Cu230      Cu  0.00138574  0.74560260  0.17282481     1.04300
C231        C  0.96901263  0.77759188  0.14320726     0.94700
C232        C  0.03368634  0.71361641  0.14307343     0.93900
C233        C  0.96896408  0.71307147  0.14457555     0.86000
C234        C  0.03300027  0.77786760  0.14140782     0.92300
N235        N  0.19642987  0.91759313  0.19462967    -0.25800
N236        N  0.20670173  0.93453665  0.17826547    -0.33700
C237        C  0.22617942  0.94027553  0.19432170     0.02500
C238        C  0.22799120  0.92668026  0.22255739     0.08500
C239        C  0.20884862  0.91247968  0.22207704    -0.04600
H240        H  0.23822362  0.95327602  0.18589884     0.09200
H241        H  0.20487910  0.89870675  0.23941207     0.10400
Cu242      Cu  0.19400369  0.94879719  0.13451495     0.44200
Cu243      Cu  0.16760896  0.90063697  0.17615884     0.42000
Cu244      Cu  0.14798620  0.91861427  0.09295574     0.43900
N245        N  0.17934544  0.95983880  0.09011772    -0.33200
N246        N  0.16341436  0.94823469  0.07373826    -0.27500
C247        C  0.15837789  0.95961801  0.04525635    -0.03600
C248        C  0.17153545  0.97945018  0.04412678     0.08600
C249        C  0.18443649  0.97912705  0.07303672     0.02400
H250        H  0.14549364  0.95432268  0.02739166     0.10100
H251        H  0.19676226  0.99190069  0.08099386     0.09200
N252        N  0.13395487  0.89121222  0.11998351    -0.34700
N253        N  0.14096889  0.88486677  0.15013275    -0.26800
C254        C  0.12826391  0.86683495  0.16055179    -0.02100
C255        C  0.11253838  0.86167150  0.13589106     0.06500
C256        C  0.11654684  0.87739310  0.11054931     0.04600
H257        H  0.13033239  0.85816794  0.18434680     0.09700
H258        H  0.10746240  0.87876179  0.08704278     0.08600
N259        N  0.20147779  0.57416034  0.18716726    -0.25800
N260        N  0.20874969  0.55499417  0.17307475    -0.33700
C261        C  0.22592543  0.54608618  0.19165137     0.02500
C262        C  0.22992845  0.56049875  0.21836409     0.08500
C263        C  0.21411005  0.57813087  0.21471056    -0.04600
H264        H  0.23504681  0.53041945  0.18587526     0.09200
H265        H  0.21161254  0.59255022  0.23122319     0.10400
Cu266      Cu  0.19532959  0.54205464  0.12874326     0.44200
Cu267      Cu  0.17382445  0.59354053  0.16956792     0.42000
Cu268      Cu  0.14421826  0.57079686  0.09756383     0.43900
N269        N  0.17845359  0.53260673  0.08501301    -0.33200
N270        N  0.15933337  0.54257983  0.07439760    -0.27500
C271        C  0.15205514  0.53184006  0.04665308    -0.03600
C272        C  0.16745912  0.51451517  0.03909308     0.08600
C273        C  0.18402538  0.51550365  0.06394885     0.02400
H274        H  0.13668252  0.53636962  0.03288436     0.10100
H275        H  0.19866955  0.50423321  0.06707958     0.09200
N276        N  0.13356098  0.60013856  0.12282806    -0.34700
N277        N  0.14451440  0.60862578  0.14896713    -0.26800
C278        C  0.13349451  0.62768637  0.15924335    -0.02100
C279        C  0.11479156  0.63130706  0.13855122     0.06500
C280        C  0.11531124  0.61357918  0.11578764     0.04600
H281        H  0.13869145  0.63806913  0.18024854     0.09700
H282        H  0.10333511  0.61065075  0.09557639     0.08600
N283        N  0.80248806  0.91496986  0.19203107    -0.25800
N284        N  0.79102306  0.92990534  0.17342091    -0.33700
C285        C  0.77125161  0.93537731  0.18914979     0.02500
C286        C  0.77046100  0.92363333  0.21924106     0.08500
C287        C  0.79051460  0.91086244  0.22028678    -0.04600
H288        H  0.75843994  0.94710294  0.17943627     0.09200
H289        H  0.79566501  0.89885889  0.23958690     0.10400
Cu290      Cu  0.80298159  0.94281565  0.12796992     0.44200
Cu291      Cu  0.83311265  0.89946863  0.17766083     0.42000
Cu292      Cu  0.85925147  0.92223655  0.10299857     0.43900
N293        N  0.82087940  0.95533820  0.08656389    -0.33200
N294        N  0.84184396  0.94840141  0.07842773    -0.27500
C295        C  0.84943164  0.96078323  0.05213793    -0.03600
C296        C  0.83236455  0.97604587  0.04295259     0.08600
C297        C  0.81445598  0.97214694  0.06531364     0.02400
H298        H  0.86619448  0.95883131  0.04057397     0.10100
H299        H  0.79830024  0.98133677  0.06679801     0.09200
N300        N  0.87238474  0.89430183  0.12903180    -0.34700
N301        N  0.86272236  0.88580787  0.15642527    -0.26800
C302        C  0.87464499  0.86719820  0.16640048    -0.02100
C303        C  0.89261958  0.86395607  0.14420761     0.06500
C304        C  0.89072438  0.88135972  0.12083393     0.04600
H305        H  0.87027477  0.85660436  0.18780594     0.09700
H306        H  0.90154249  0.88415396  0.09909953     0.08600
N307        N  0.84166540  0.54337104  0.06969326    -0.25800
N308        N  0.82216601  0.53407265  0.08041041    -0.33700
C309        C  0.81625739  0.51678921  0.05998237     0.02500
C310        C  0.83296367  0.51491703  0.03537299     0.08500
C311        C  0.84887569  0.53191455  0.04243744    -0.04600
H312        H  0.80122235  0.50602184  0.06335760     0.09200
H313        H  0.86446556  0.53579099  0.02859699     0.10400
Cu314      Cu  0.80494673  0.54444136  0.12325548     0.44200
Cu315      Cu  0.85717726  0.57167756  0.09228090     0.42000
Cu316      Cu  0.82693597  0.59514078  0.16402286     0.43900
N317        N  0.79090836  0.55778725  0.16673745    -0.33200
N318        N  0.79839786  0.57679102  0.18096520    -0.27500
C319        C  0.78537884  0.58110041  0.20811358    -0.03600
C320        C  0.76907621  0.56382605  0.21126388     0.08600
C321        C  0.77318567  0.54929659  0.18474838     0.02400
H322        H  0.78798555  0.59543053  0.22473841     0.10100
H323        H  0.76384993  0.53378378  0.17879745     0.09200
N324        N  0.85717640  0.60908526  0.14452899    -0.34700
N325        N  0.86831366  0.60053215  0.11849552    -0.26800
C326        C  0.88727327  0.61334135  0.11260211    -0.02100
C327        C  0.88804484  0.63065418  0.13605795     0.06500
C328        C  0.86876054  0.62748142  0.15588685     0.04600
H329        H  0.89958845  0.61023334  0.09277341     0.09700
H330        H  0.86354848  0.63771021  0.17708492     0.08600
O331        O  0.02349149  0.27119079  0.84682812    -0.71500
O332        O  0.97484822  0.22180795  0.85158840    -0.72500
O333        O  0.97432032  0.27064448  0.84889793    -0.61100
O334        O  0.02386949  0.22223280  0.84982852    -0.69500
O335        O  0.02464108  0.22359159  0.90532323    -0.69000
O336        O  0.97526105  0.27186267  0.90438583    -0.60300
O337        O  0.97563572  0.22302798  0.90707071    -0.72800
O338        O  0.02438954  0.27249721  0.90229262    -0.71600
Cu339      Cu  0.99912289  0.24643555  0.84733196     1.04600
Cu340      Cu  0.00003676  0.24780410  0.90670456     1.04300
C341        C  0.03150703  0.27963516  0.87379855     0.94700
C342        C  0.96764410  0.21467348  0.88000886     0.93900
C343        C  0.96696937  0.27873342  0.87656081     0.86000
C344        C  0.03186414  0.21524232  0.87780110     0.92300
N345        N  0.20014988  0.41365023  0.81569712    -0.25800
N346        N  0.21414898  0.42581282  0.83471552    -0.33700
C347        C  0.23328090  0.43105766  0.81695896     0.02500
C348        C  0.23097321  0.42201108  0.78515028     0.08500
C349        C  0.20975347  0.41123239  0.78526618    -0.04600
H350        H  0.24733398  0.44149092  0.82604174     0.09200
H351        H  0.20183909  0.40226356  0.76466372     0.10400
Cu352      Cu  0.20499224  0.43677151  0.88257987     0.44200
Cu353      Cu  0.16866028  0.40045230  0.83186111     0.42000
Cu354      Cu  0.14720809  0.42038562  0.91107040     0.43900
N355        N  0.18920734  0.44959446  0.92561038    -0.33200
N356        N  0.16785668  0.44457804  0.93490406    -0.27500
C357        C  0.16238386  0.45707097  0.96202807    -0.03600
C358        C  0.18124870  0.47043040  0.97041537     0.08600
C359        C  0.19795811  0.46510049  0.94696014     0.02400
H360        H  0.14599215  0.45622050  0.97494690     0.10100
H361        H  0.21506492  0.47240407  0.94505355     0.09200
N362        N  0.13148906  0.39420799  0.88405055    -0.34700
N363        N  0.13938213  0.38695911  0.85489949    -0.26800
C364        C  0.12642627  0.36915193  0.84467800    -0.02100
C365        C  0.10961299  0.36503976  0.86852438     0.06500
C366        C  0.11328444  0.38117996  0.89314173     0.04600
H367        H  0.12944675  0.35952939  0.82203861     0.09700
H368        H  0.10384198  0.38293712  0.91635551     0.08600
N369        N  0.19472887  0.07976343  0.81480903    -0.25800
N370        N  0.20572412  0.06231945  0.82873084    -0.33700
C371        C  0.22497958  0.05805155  0.81096051     0.02500
C372        C  0.22581797  0.07323953  0.78430405     0.08500
C373        C  0.20637004  0.08673639  0.78746041    -0.04600
H374        H  0.23745350  0.04490285  0.81703142     0.09200
H375        H  0.20154325  0.10117945  0.77189238     0.10400
Cu376      Cu  0.19404232  0.04556270  0.87161837     0.44200
Cu377      Cu  0.16600286  0.09508902  0.83570535     0.42000
Cu378      Cu  0.14934451  0.07533266  0.91823045     0.43900
N379        N  0.17976397  0.03331911  0.91605304    -0.33200
N380        N  0.16455018  0.04487365  0.93399816    -0.27500
C381        C  0.15966169  0.03287332  0.96198479    -0.03600
C382        C  0.17209441  0.01264169  0.96131758     0.08600
C383        C  0.18450607  0.01339783  0.93177607     0.02400
H384        H  0.14740646  0.03814687  0.98087351     0.10100
H385        H  0.19636513  0.00056481  0.92260081     0.09200
N386        N  0.13406522  0.10306968  0.89406948    -0.34700
N387        N  0.14004547  0.10999674  0.86369656    -0.26800
C388        C  0.12680780  0.12790444  0.85474074    -0.02100
C389        C  0.11178996  0.13237632  0.88065464     0.06500
C390        C  0.11674824  0.11639158  0.90522046     0.04600
H391        H  0.12802322  0.13692836  0.83108197     0.09700
H392        H  0.10834421  0.11446549  0.92926378     0.08600
N393        N  0.79555383  0.08567973  0.82765005    -0.25800
N394        N  0.78236108  0.07214017  0.84623716    -0.33700
C395        C  0.76276240  0.06765500  0.82958452     0.02500
C396        C  0.76385785  0.07846784  0.79878112     0.08500
C397        C  0.78487854  0.08976337  0.79835376    -0.04600
H398        H  0.74899288  0.05680066  0.83886262     0.09200
H399        H  0.79172535  0.10048087  0.77849938     0.10400
Cu400      Cu  0.79255817  0.05863094  0.89203890     0.44200
Cu401      Cu  0.82700857  0.09873002  0.84389675     0.42000
Cu402      Cu  0.84918424  0.07554024  0.92166469     0.43900
N403        N  0.80877369  0.04364336  0.93292758    -0.33200
N404        N  0.82973341  0.04920819  0.94298691    -0.27500
C405        C  0.83562231  0.03552742  0.96880457    -0.03600
C406        C  0.81742099  0.02074798  0.97540917     0.08600
C407        C  0.80069005  0.02646671  0.95231122     0.02400
H408        H  0.85179211  0.03657633  0.98209507     0.10100
H409        H  0.78396030  0.01850798  0.94949317     0.09200
N410        N  0.86438249  0.10286525  0.89608997    -0.34700
N411        N  0.85635183  0.11123501  0.86758968    -0.26800
C412        C  0.86955972  0.12913202  0.85799742    -0.02100
C413        C  0.88664520  0.13210416  0.88155999     0.06500
C414        C  0.88290218  0.11522595  0.90536230     0.04600
H415        H  0.86669568  0.13941776  0.83579594     0.09700
H416        H  0.89269080  0.11231978  0.92796992     0.08600
N417        N  0.82819530  0.44268430  0.93504402    -0.25800
N418        N  0.80793984  0.44978697  0.92392946    -0.33700
C419        C  0.80042162  0.46690499  0.94363003     0.02500
C420        C  0.81690547  0.47108432  0.96777565     0.08500
C421        C  0.83427176  0.45539452  0.96160065    -0.04600
H422        H  0.78427915  0.47589552  0.94031706     0.09200
H423        H  0.84992125  0.45299324  0.97582356     0.10400
Cu424      Cu  0.79184905  0.43671671  0.88140198     0.44200
Cu425      Cu  0.84630607  0.41520087  0.91507342     0.42000
Cu426      Cu  0.82007263  0.38761091  0.84431566     0.43900
N427        N  0.78070346  0.42130354  0.83724900    -0.33200
N428        N  0.79075827  0.40296744  0.82446675    -0.27500
C429        C  0.77940916  0.39668167  0.79671203    -0.03600
C430        C  0.76155975  0.41192426  0.79132090     0.08600
C431        C  0.76286356  0.42736756  0.81751906     0.02400
H432        H  0.78398551  0.38217125  0.78132498     0.10100
H433        H  0.75145457  0.44165457  0.82226458     0.09200
N434        N  0.85028570  0.37603248  0.86657527    -0.34700
N435        N  0.85999140  0.38621896  0.89243594    -0.26800
C436        C  0.87931313  0.37477254  0.90076104    -0.02100
C437        C  0.88181738  0.35660710  0.87904715     0.06500
C438        C  0.86319442  0.35786128  0.85770642     0.04600
H439        H  0.89068589  0.37938861  0.92102704     0.09700
H440        H  0.85933956  0.34650065  0.83717402     0.08600
C441        C  0.04863298  0.29759937  0.87204672    -0.17000
C442        C  0.06270309  0.31293635  0.87071483     0.07000
C443        C  0.07899582  0.33112899  0.86950663     0.08900
C444        C  0.09286563  0.34665995  0.86885842    -0.17900
C445        C  0.04910407  0.19756246  0.87845350    -0.17000
C446        C  0.06337683  0.18253706  0.87955540     0.07000
C447        C  0.08006051  0.16490356  0.88087463     0.08900
C448        C  0.09442214  0.14995446  0.88139705    -0.17900
C449        C  0.95029686  0.19695179  0.88144360    -0.17000
C450        C  0.93577200  0.18204663  0.88195749     0.07000
C451        C  0.91874186  0.16456302  0.88203199     0.08900
C452        C  0.90417225  0.14970371  0.88186701    -0.17900
C453        C  0.90019632  0.33998714  0.87845019    -0.17000
C454        C  0.91561168  0.32607283  0.87777785     0.07000
C455        C  0.93365777  0.30973913  0.87696090     0.08900
C456        C  0.94896116  0.29570106  0.87649136    -0.17900
C457        C  0.83438649  0.49785919  0.00820356    -0.15000
C458        C  0.81550174  0.48815240  0.99492202    -0.30100
H459        H  0.85128743  0.49390692  0.99800715     0.14100
H460        H  0.79850549  0.49358231  0.00311722     0.14600
C461        C  0.83411437  0.99358100  0.01624957    -0.15000
C462        C  0.81549087  0.00305971  0.00190856    -0.30100
H463        H  0.85123150  0.99821715  0.00744029     0.14100
H464        H  0.79836729  0.99718840  0.00893904     0.14600
C465        C  0.16535876  0.49792246  0.01135843    -0.15000
C466        C  0.18358361  0.48677807  0.99843381    -0.30100
H467        H  0.14843137  0.49555639  0.00037741     0.14100
H468        H  0.20079666  0.49052135  0.00750423     0.14600
C469        C  0.17173678  0.99381016  0.98613209    -0.15000
C470        C  0.17098495  0.99805250  0.01903519    -0.30100
H471        H  0.17356661  0.97629793  0.97738162     0.14100
H472        H  0.17167973  0.01563769  0.02782192     0.14600
C473        C  0.05014318  0.79576243  0.14037657    -0.17000
C474        C  0.06441433  0.81087565  0.13918532     0.07000
C475        C  0.08112686  0.82861090  0.13772419     0.08900
C476        C  0.09541601  0.84371046  0.13667198    -0.17900
C477        C  0.95218975  0.79572618  0.14328949    -0.17000
C478        C  0.93852871  0.81135180  0.14355096     0.07000
C479        C  0.92269088  0.82980980  0.14396961     0.08900
C480        C  0.90908334  0.84547504  0.14424171    -0.17900
C481        C  0.05156411  0.69641912  0.14295613    -0.17000
C482        C  0.06646742  0.68190633  0.14249775     0.07000
C483        C  0.08368130  0.66462330  0.14155083     0.08900
C484        C  0.09804364  0.64959743  0.14039818    -0.17900
C485        C  0.95148773  0.69542629  0.14502221    -0.17000
C486        C  0.93689606  0.68058746  0.14406845     0.07000
C487        C  0.91986270  0.66316245  0.14179727     0.08900
C488        C  0.90537607  0.64831931  0.13928521    -0.17900
C489        C  0.75131998  0.56087661  0.23750563    -0.15000
C490        C  0.74274719  0.57883645  0.25425634    -0.30100
H491        H  0.74438941  0.54381053  0.24194230     0.14100
H492        H  0.74836721  0.59608464  0.24779568     0.14600
C493        C  0.25640779  0.57539361  0.26107118    -0.15000
C494        C  0.24729041  0.55736836  0.24507782    -0.30100
H495        H  0.25155252  0.59264745  0.25351040     0.14100
H496        H  0.25353230  0.54017846  0.25041378     0.14600
C497        C  0.75134243  0.92348381  0.24357223    -0.15000
C498        C  0.75492471  0.92018554  0.27637227    -0.30100
H499        H  0.73403878  0.92685272  0.23447535     0.14100
H500        H  0.77237196  0.91903564  0.28600499     0.14600
C501        C  0.59110139  0.84730562  0.36216585    -0.17000
C502        C  0.57751277  0.83159088  0.36249216     0.07000
C503        C  0.56150716  0.81325724  0.36391575     0.08900
C504        C  0.54761458  0.79786672  0.36609565    -0.17900
C505        C  0.44847246  0.69940231  0.38812952    -0.17000
C506        C  0.43293738  0.68568054  0.39070710     0.07000
C507        C  0.41441890  0.66988925  0.39283048     0.08900
C508        C  0.39853215  0.65648163  0.39366353    -0.17900
C509        C  0.54905513  0.69946922  0.38512682    -0.17000
C510        C  0.56432424  0.68546197  0.38677296     0.07000
C511        C  0.58237971  0.66919503  0.38783151     0.08900
C512        C  0.59780599  0.65531927  0.38785688    -0.17900
C513        C  0.24760118  0.92598054  0.24584881    -0.15000
C514        C  0.24458285  0.92401632  0.27899704    -0.30100
H515        H  0.26483067  0.92838919  0.23567831     0.14100
H516        H  0.22728975  0.92402861  0.28950210     0.14600
C517        C  0.44939710  0.79736011  0.36880384    -0.17000
C518        C  0.43545883  0.81264692  0.36674571     0.07000
C519        C  0.41958340  0.83098984  0.36498912     0.08900
C520        C  0.40628292  0.84688211  0.36425929    -0.17900
C521        C  0.73335241  0.42917363  0.75191997    -0.15000
C522        C  0.74454838  0.41069262  0.76386274    -0.30100
H523        H  0.73715916  0.44604511  0.76186734     0.14100
H524        H  0.74216268  0.39419443  0.75187584     0.14600
C525        C  0.67117176  0.49884679  0.51291151    -0.15000
C526        C  0.67141521  0.49451501  0.47993901    -0.30100
H527        H  0.67215063  0.51644862  0.52155803     0.14100
H528        H  0.67258782  0.47695419  0.47118168     0.14600
C529        C  0.26957993  0.42496530  0.75879512    -0.15000
C530        C  0.24652933  0.42446931  0.75596138    -0.30100
H531        H  0.27748079  0.42283697  0.78319911     0.14100
H532        H  0.23884019  0.42412844  0.73123344     0.14600
C533        C  0.31592569  0.48373293  0.50081723    -0.15000
C534        C  0.31613047  0.50659358  0.50475996    -0.30100
H535        H  0.31707560  0.47660181  0.47584123     0.14100
H536        H  0.31720521  0.51368667  0.52976176     0.14600
C537        C  0.75133941  0.07806586  0.73987319    -0.15000
C538        C  0.74597896  0.07805508  0.77257350    -0.30100
H539        H  0.76930150  0.07761760  0.73214643     0.14100
H540        H  0.72810852  0.07628174  0.78036742     0.14600
C541        C  0.68641599  0.00297108  0.50754703    -0.15000
C542        C  0.66782417  0.99392901  0.49251339    -0.30100
H543        H  0.70349155  0.99647703  0.50175829     0.14100
H544        H  0.65068589  0.99947546  0.49981263     0.14600
C545        C  0.45199835  0.29427661  0.61803423    -0.17000
C546        C  0.43701876  0.30862458  0.61692061     0.07000
C547        C  0.41926678  0.32524021  0.61591351     0.08900
C548        C  0.40402784  0.33933247  0.61582118    -0.17900
C549        C  0.54940285  0.19356680  0.62448778    -0.17000
C550        C  0.56345338  0.17832266  0.62535174     0.07000
C551        C  0.57983659  0.16039297  0.62646562     0.08900
C552        C  0.59386240  0.14513432  0.62757132    -0.17900
C553        C  0.55221019  0.29206467  0.61296766    -0.17000
C554        C  0.56745425  0.30611959  0.61123877     0.07000
C555        C  0.58516100  0.32278628  0.61024271     0.08900
C556        C  0.59999726  0.33730543  0.61042301    -0.17900
C557        C  0.23983849  0.08130787  0.72744844    -0.15000
C558        C  0.24435701  0.07544975  0.75922978    -0.30100
H559        H  0.22211587  0.08336393  0.71928357     0.14100
H560        H  0.26182886  0.07102893  0.76652893     0.14600
C561        C  0.31624755  0.00636473  0.50711330    -0.15000
C562        C  0.33493128  0.99628424  0.49378627    -0.30100
H563        H  0.29914532  0.00066182  0.50000082     0.14100
H564        H  0.35203023  0.00103001  0.50227395     0.14600
C565        C  0.45070084  0.19608855  0.62955641    -0.17000
C566        C  0.43593175  0.18156780  0.63094612     0.07000
C567        C  0.41870933  0.16447290  0.63167529     0.08900
C568        C  0.40396358  0.14990679  0.63175392    -0.17900
loop_ 
_geom_bond_atom_site_label_1 
_geom_bond_atom_site_label_2 
_geom_bond_distance 
_geom_bond_site_symmetry_2 
_ccdc_geom_bond_type 
N1            N2   1.322       .  A
N1            C5   1.346       .  A
N1           Cu9   2.073       .  S
N2            C3   1.345       .  A
N2           Cu8   2.074       .  S
C3            C4   1.380       .  A
C3            H6   1.082       .  S
C4            C5   1.383       .  A
C4          C557   1.471       .  S
C5            H7   1.082       .  S
Cu8          N11   2.074       .  S
Cu9          N19   2.073       .  S
Cu10         N12   2.074       .  S
Cu10         N18   2.075       .  S
N11          N12   1.322       .  A
N11          C15   1.344       .  A
N12          C13   1.346       .  A
C13          C14   1.386       .  A
C13          H16   1.082       .  S
C14          C15   1.382       .  A
C14         C561   1.477       .  S
C15          H17   1.082       .  S
N18          N19   1.324       .  A
N18          C22   1.345       .  A
N19          C20   1.345       .  A
C20          C21   1.379       .  A
C20          H23   1.082       .  S
C21          C22   1.379       .  A
C21         C568   1.436       .  S
C22          H24   1.082       .  S
O25         Cu33   2.012       .  S
O25          C35   1.277       .  A
O26         Cu33   2.010       .  S
O26          C36   1.276       .  A
O27         Cu33   2.014       .  S
O27          C37   1.277       .  A
O28         Cu33   2.015       .  S
O28          C38   1.277       .  A
O29         Cu34   2.013       .  S
O29          C38   1.277       .  A
O30         Cu34   2.012       .  S
O30          C37   1.277       .  A
O31         Cu34   2.007       .  S
O31          C36   1.276       .  A
O32         Cu34   2.011       .  S
O32          C35   1.276       .  A
Cu33        Cu34   2.379       .  S
C35         C553   1.437       .  S
C36         C565   1.434       .  S
C37         C549   1.438       .  S
C38         C545   1.439       .  S
N39          N40   1.322       .  A
N39          C43   1.345       .  A
N39         Cu47   2.073       .  S
N40          C41   1.347       .  A
N40         Cu46   2.086       .  S
C41          C42   1.385       .  A
C41          H44   1.082       .  S
C42          C43   1.385       .  A
C42         C541   1.481       .  S
C43          H45   1.082       .  S
Cu46         N49   2.086       .  S
Cu47         N57   2.073       .  S
Cu48         N50   2.078       .  S
Cu48         N56   2.077       .  S
N49          N50   1.323       .  A
N49          C53   1.347       .  A
N50          C51   1.346       .  A
C51          C52   1.384       .  A
C51          H54   1.082       .  S
C52          C53   1.383       .  A
C52         C537   1.478       .  S
C53          H55   1.082       .  S
N56          N57   1.323       .  A
N56          C60   1.346       .  A
N57          C58   1.346       .  A
C58          C59   1.380       .  A
C58          H61   1.082       .  S
C59          C60   1.380       .  A
C59         C552   1.439       .  S
C60          H62   1.082       .  S
N63          N64   1.323       .  A
N63          C67   1.346       .  A
N63         Cu71   2.075       .  S
N64          C65   1.348       .  A
N64         Cu70   2.093       .  S
C65          C66   1.387       .  A
C65          H68   1.082       .  S
C66          C67   1.381       .  A
C66         C529   1.480       .  S
C67          H69   1.082       .  S
Cu70         N73   2.093       .  S
Cu71         N81   2.075       .  S
Cu72         N74   2.079       .  S
Cu72         N80   2.080       .  S
N73          N74   1.324       .  A
N73          C77   1.349       .  A
N74          C75   1.346       .  A
C75          C76   1.381       .  A
C75          H78   1.082       .  S
C76          C77   1.388       .  A
C76         C533   1.481       .  S
C77          H79   1.082       .  S
N80          N81   1.323       .  A
N80          C84   1.348       .  A
N81          C82   1.345       .  A
C82          C83   1.379       .  A
C82          H85   1.082       .  S
C83          C84   1.382       .  A
C83         C548   1.440       .  S
C84          H86   1.082       .  S
N87          N88   1.323       .  A
N87          C91   1.347       .  A
N87         Cu95   2.080       .  S
N88          C89   1.348       .  A
N88         Cu94   2.088       .  S
C89          C90   1.385       .  A
C89          H92   1.082       .  S
C90          C91   1.386       .  A
C90         C521   1.483       .  S
C91          H93   1.082       .  S
Cu94         N97   2.088       .  S
Cu95        N105   2.080       .  S
Cu96         N98   2.076       .  S
Cu96        N104   2.076       .  S
N97          N98   1.323       .  A
N97         C101   1.347       .  A
N98          C99   1.347       .  A
C99         C100   1.384       .  A
C99         H102   1.082       .  S
C100        C101   1.383       .  A
C100        C525   1.477       .  S
C101        H103   1.082       .  S
N104        N105   1.323       .  A
N104        C108   1.346       .  A
N105        C106   1.346       .  A
C106        C107   1.380       .  A
C106        H109   1.082       .  S
C107        C108   1.380       .  A
C107        C556   1.439       .  S
C108        H110   1.082       .  S
N111        N112   1.322       .  A
N111        C115   1.346       .  A
N111       Cu119   2.077       .  S
N112        C113   1.345       .  A
N112       Cu118   2.077       .  S
C113        C114   1.386       .  A
C113        H116   1.081       .  S
C114        C115   1.383       .  A
C114        C562   1.479       .  S
C115        H117   1.082       .  S
Cu118       N121   2.078       .  S
Cu119       N129   2.077       .  S
Cu120       N122   2.076       .  S
Cu120       N128   2.076       .  S
N121        N122   1.323       .  A
N121        C125   1.346       .  A
N122        C123   1.345       .  A
C123        C124   1.383       .  A
C123        H126   1.082       .  S
C124        C125   1.382       .  A
C124        C514   1.475       .  S
C125        H127   1.082       .  S
N128        N129   1.323       .  A
N128        C132   1.346       .  A
N129        C130   1.346       .  A
C130        C131   1.380       .  A
C130        H133   1.082       .  S
C131        C132   1.380       .  A
C131        C520   1.439       .  S
C132        H134   1.082       .  S
O135       Cu143   2.014       .  S
O135        C145   1.277       .  A
O136       Cu143   2.015       .  S
O136        C146   1.277       .  A
O137       Cu143   2.014       .  S
O137        C147   1.277       .  A
O138       Cu143   2.012       .  S
O138        C148   1.277       .  A
O139       Cu144   2.012       .  S
O139        C148   1.277       .  A
O140       Cu144   2.013       .  S
O140        C147   1.277       .  A
O141       Cu144   2.016       .  S
O141        C146   1.277       .  A
O142       Cu144   2.017       .  S
O142        C145   1.277       .  A
Cu143      Cu144   2.378       .  S
C145        C504   1.439       .  S
C146        C505   1.440       .  S
C147        C509   1.438       .  S
C148        C517   1.437       .  S
N149        N150   1.323       .  A
N149        C153   1.345       .  A
N149       Cu157   2.083       .  S
N150        C151   1.347       .  A
N150       Cu156   2.077       .  S
C151        C152   1.386       .  A
C151        H154   1.082       .  S
C152        C153   1.383       .  A
C152        C542   1.479       .  S
C153        H155   1.082       .  S
Cu156       N159   2.076       .  S
Cu157       N167   2.082       .  S
Cu158       N160   2.072       .  S
Cu158       N166   2.072       .  S
N159        N160   1.323       .  A
N159        C163   1.346       .  A
N160        C161   1.344       .  A
C161        C162   1.382       .  A
C161        H164   1.082       .  S
C162        C163   1.381       .  A
C162        C498   1.472       .  S
C163        H165   1.082       .  S
N166        N167   1.323       .  A
N166        C170   1.346       .  A
N167        C168   1.347       .  A
C168        C169   1.382       .  A
C168        H171   1.082       .  S
C169        C170   1.380       .  A
C169        C501   1.441       .  S
C170        H172   1.082       .  S
N173        N174   1.323       .  A
N173        C177   1.343       .  A
N173       Cu181   2.071       .  S
N174        C175   1.351       .  A
N174       Cu180   2.096       .  S
C175        C176   1.389       .  A
C175        H178   1.082       .  S
C176        C177   1.379       .  A
C176        C493   1.478       .  S
C177        H179   1.082       .  S
Cu180       N183   2.096       .  S
Cu181       N191   2.071       .  S
Cu182       N184   2.080       .  S
Cu182       N190   2.079       .  S
N183        N184   1.324       .  A
N183        C187   1.350       .  A
N184        C185   1.345       .  A
C185        C186   1.381       .  A
C185        H188   1.082       .  S
C186        C187   1.388       .  A
C186        C534   1.481       .  S
C187        H189   1.082       .  S
N190        N191   1.322       .  A
N190        C194   1.347       .  A
N191        C192   1.346       .  A
C192        C193   1.380       .  A
C192        H195   1.082       .  S
C193        C194   1.382       .  A
C193        C508   1.441       .  S
C194        H196   1.082       .  S
N197        N198   1.324       .  A
N197        C201   1.345       .  A
N197       Cu205   2.075       .  S
N198        C199   1.348       .  A
N198       Cu204   2.089       .  S
C199        C200   1.384       .  A
C199        H202   1.082       .  S
C200        C201   1.383       .  A
C200        C526   1.478       .  S
C201        H203   1.082       .  S
Cu204       N207   2.088       .  S
Cu205       N215   2.075       .  S
Cu206       N208   2.071       .  S
Cu206       N214   2.070       .  S
N207        N208   1.323       .  A
N207        C211   1.349       .  A
N208        C209   1.343       .  A
C209        C210   1.379       .  A
C209        H212   1.082       .  S
C210        C211   1.387       .  A
C210        C490   1.476       .  S
C211        H213   1.082       .  S
N214        N215   1.322       .  A
N214        C218   1.345       .  A
N215        C216   1.346       .  A
C216        C217   1.381       .  A
C216        H219   1.082       .  S
C217        C218   1.380       .  A
C217        C512   1.439       .  S
C218        H220   1.082       .  S
O221       Cu229   2.017   1_655  S
O221        C231   1.277       .  A
O222       Cu229   2.019       .  S
O222        C232   1.278       .  A
O223       Cu229   2.017   1_655  S
O223        C233   1.277       .  A
O224       Cu229   2.014       .  S
O224        C234   1.277       .  A
O225       Cu230   2.020       .  S
O225        C234   1.278       .  A
O226       Cu230   2.025   1_655  S
O226        C233   1.278       .  A
O227       Cu230   2.019       .  S
O227        C232   1.278       .  A
O228       Cu230   2.016   1_655  S
O228        C231   1.277       .  A
Cu229      Cu230   2.377       .  S
C231        C477   1.440       .  S
C232        C481   1.443       .  S
C233        C485   1.444       .  S
C234        C473   1.441       .  S
N235        N236   1.322       .  A
N235        C239   1.347       .  A
N235       Cu243   2.082       .  S
N236        C237   1.345       .  A
N236       Cu242   2.071       .  S
C237        C238   1.380       .  A
C237        H240   1.082       .  S
C238        C239   1.385       .  A
C238        C513   1.473       .  S
C239        H241   1.082       .  S
Cu242       N245   2.071       .  S
Cu243       N253   2.083       .  S
Cu244       N246   2.086       .  S
Cu244       N252   2.087       .  S
N245        N246   1.323       .  A
N245        C249   1.344       .  A
N246        C247   1.348       .  A
C247        C248   1.385       .  A
C247        H250   1.082       .  S
C248        C249   1.380       .  A
C248        C470   1.474       .  S
C249        H251   1.082       .  S
N252        N253   1.325       .  A
N252        C256   1.348       .  A
N253        C254   1.347       .  A
C254        C255   1.380       .  A
C254        H257   1.082       .  S
C255        C256   1.382       .  A
C255        C476   1.443       .  S
C256        H258   1.082       .  S
N259        N260   1.323       .  A
N259        C263   1.346       .  A
N259       Cu267   2.085       .  S
N260        C261   1.348       .  A
N260       Cu266   2.084       .  S
C261        C262   1.383       .  A
C261        H264   1.082       .  S
C262        C263   1.386       .  A
C262        C494   1.482       .  S
C263        H265   1.082       .  S
Cu266       N269   2.084       .  S
Cu267       N277   2.085       .  S
Cu268       N270   2.086       .  S
Cu268       N276   2.085       .  S
N269        N270   1.323       .  A
N269        C273   1.348       .  A
N270        C271   1.346       .  A
C271        C272   1.384       .  A
C271        H274   1.082       .  S
C272        C273   1.387       .  A
C272        C465   1.482       .  S
C273        H275   1.082       .  S
N276        N277   1.324       .  A
N276        C280   1.347       .  A
N277        C278   1.348       .  A
C278        C279   1.383       .  A
C278        H281   1.082       .  S
C279        C280   1.382       .  A
C279        C484   1.445       .  S
C280        H282   1.082       .  S
N283        N284   1.324       .  A
N283        C287   1.345       .  A
N283       Cu291   2.075       .  S
N284        C285   1.346       .  A
N284       Cu290   2.080       .  S
C285        C286   1.382       .  A
C285        H288   1.082       .  S
C286        C287   1.383       .  A
C286        C497   1.473       .  S
C287        H289   1.082       .  S
Cu290       N293   2.080       .  S
Cu291       N301   2.076       .  S
Cu292       N294   2.075       .  S
Cu292       N300   2.075       .  S
N293        N294   1.322       .  A
N293        C297   1.347       .  A
N294        C295   1.345       .  A
C295        C296   1.381       .  A
C295        H298   1.082       .  S
C296        C297   1.386       .  A
C296        C461   1.477       .  S
C297        H299   1.082       .  S
N300        N301   1.323       .  A
N300        C304   1.346       .  A
N301        C302   1.347       .  A
C302        C303   1.381       .  A
C302        H305   1.082       .  S
C303        C304   1.380       .  A
C303        C480   1.441       .  S
C304        H306   1.082       .  S
N307        N308   1.323       .  A
N307        C311   1.348       .  A
N307       Cu315   2.091       .  S
N308        C309   1.346       .  A
N308       Cu314   2.074       .  S
C309        C310   1.384       .  A
C309        H312   1.082       .  S
C310        C311   1.385       .  A
C310        C457   1.480       .  S
C311        H313   1.082       .  S
Cu314       N317   2.074       .  S
Cu315       N325   2.091       .  S
Cu316       N318   2.080       .  S
Cu316       N324   2.080       .  S
N317        N318   1.322       .  A
N317        C321   1.346       .  A
N318        C319   1.346       .  A
C319        C320   1.386       .  A
C319        H322   1.082       .  S
C320        C321   1.382       .  A
C320        C489   1.477       .  S
C321        H323   1.082       .  S
N324        N325   1.324       .  A
N324        C328   1.347       .  A
N325        C326   1.348       .  A
C326        C327   1.383       .  A
C326        H329   1.082       .  S
C327        C328   1.381       .  A
C327        C488   1.445       .  S
C328        H330   1.082       .  S
O331       Cu339   2.019   1_455  S
O331        C341   1.277       .  A
O332       Cu339   2.016       .  S
O332        C342   1.277       .  A
O333       Cu339   2.018       .  S
O333        C343   1.278       .  A
O334       Cu339   2.016   1_455  S
O334        C344   1.277       .  A
O335       Cu340   2.010       .  S
O335        C344   1.276       .  A
O336       Cu340   2.011   1_655  S
O336        C343   1.276       .  A
O337       Cu340   2.022   1_655  S
O337        C342   1.278       .  A
O338       Cu340   2.023       .  S
O338        C341   1.278       .  A
Cu339      Cu340   2.377   1_655  S
C341        C441   1.444       .  S
C342        C449   1.442       .  S
C343        C456   1.440       .  S
C344        C445   1.437       .  S
N345        N346   1.323       .  A
N345        C349   1.345       .  A
N345       Cu353   2.081       .  S
N346        C347   1.350       .  A
N346       Cu352   2.089       .  S
C347        C348   1.387       .  A
C347        H350   1.082       .  S
C348        C349   1.382       .  A
C348        C530   1.480       .  S
C349        H351   1.082       .  S
Cu352       N355   2.090       .  S
Cu353       N363   2.081       .  S
Cu354       N356   2.087       .  S
Cu354       N362   2.086       .  S
N355        N356   1.324       .  A
N355        C359   1.347       .  A
N356        C357   1.348       .  A
C357        C358   1.386       .  A
C357        H360   1.082       .  S
C358        C359   1.384       .  A
C358        C466   1.482       .  S
C359        H361   1.082       .  S
N362        N363   1.323       .  A
N362        C366   1.348       .  A
N363        C364   1.347       .  A
C364        C365   1.382       .  A
C364        H367   1.082       .  S
C365        C366   1.383       .  A
C365        C444   1.446       .  S
C366        H368   1.082       .  S
N369        N370   1.322       .  A
N369        C373   1.344       .  A
N369       Cu377   2.068       .  S
N370        C371   1.346       .  A
N370       Cu376   2.080       .  S
C371        C372   1.383       .  A
C371        H374   1.082       .  S
C372        C373   1.382       .  A
C372        C558   1.473       .  S
C373        H375   1.082       .  S
Cu376       N379   2.081       .  S
Cu377       N387   2.069       .  S
Cu378       N380   2.079       .  S
Cu378       N386   2.080       .  S
N379        N380   1.323       .  A
N379        C383   1.347       .  A
N380        C381   1.346       .  A
C381        C382   1.384       .  A
C381        H384   1.082       .  S
C382        C383   1.382       .  A
C382        C469   1.476   1_545  S
C383        H385   1.082       .  S
N386        N387   1.323       .  A
N386        C390   1.347       .  A
N387        C388   1.344       .  A
C388        C389   1.378       .  A
C388        H391   1.082       .  S
C389        C390   1.381       .  A
C389        C448   1.438       .  S
C390        H392   1.082       .  S
N393        N394   1.323       .  A
N393        C397   1.347       .  A
N393       Cu401   2.084       .  S
N394        C395   1.346       .  A
N394       Cu400   2.078       .  S
C395        C396   1.382       .  A
C395        H398   1.082       .  S
C396        C397   1.386       .  A
C396        C538   1.478       .  S
C397        H399   1.082       .  S
Cu400       N403   2.078       .  S
Cu401       N411   2.084       .  S
Cu402       N404   2.081       .  S
Cu402       N410   2.082       .  S
N403        N404   1.323       .  A
N403        C407   1.346       .  A
N404        C405   1.346       .  A
C405        C406   1.386       .  A
C405        H408   1.082       .  S
C406        C407   1.382       .  A
C406        C462   1.478   1_556  S
C407        H409   1.082       .  S
N410        N411   1.324       .  A
N410        C414   1.348       .  A
N411        C412   1.347       .  A
C412        C413   1.382       .  A
C412        H415   1.082       .  S
C413        C414   1.382       .  A
C413        C452   1.444       .  S
C414        H416   1.082       .  S
N417        N418   1.324       .  A
N417        C421   1.347       .  A
N417       Cu425   2.079       .  S
N418        C419   1.347       .  A
N418       Cu424   2.091       .  S
C419        C420   1.384       .  A
C419        H422   1.082       .  S
C420        C421   1.384       .  A
C420        C458   1.479       .  S
C421        H423   1.082       .  S
Cu424       N427   2.091       .  S
Cu425       N435   2.079       .  S
Cu426       N428   2.080       .  S
Cu426       N434   2.080       .  S
N427        N428   1.323       .  A
N427        C431   1.350       .  A
N428        C429   1.345       .  A
C429        C430   1.382       .  A
C429        H432   1.082       .  S
C430        C431   1.388       .  A
C430        C522   1.481       .  S
C431        H433   1.082       .  S
N434        N435   1.323       .  A
N434        C438   1.347       .  A
N435        C436   1.347       .  A
C436        C437   1.381       .  A
C436        H439   1.082       .  S
C437        C438   1.381       .  A
C437        C453   1.442       .  S
C438        H440   1.082       .  S
C441        C442   1.211       .  T
C442        C443   1.421       .  S
C443        C444   1.211       .  T
C445        C446   1.207       .  T
C446        C447   1.414       .  S
C447        C448   1.207       .  T
C449        C450   1.210       .  T
C450        C451   1.419       .  S
C451        C452   1.210       .  T
C453        C454   1.208       .  T
C454        C455   1.416       .  S
C455        C456   1.208       .  T
C457        C458   1.345   1_554  D
C457        H459   1.086   1_554  S
C458        H460   1.086   1_556  S
C461        C462   1.343   1_565  D
C461        H463   1.086       .  S
C462        H464   1.086   1_545  S
C465        C466   1.345   1_554  D
C465        H467   1.086       .  S
C466        H468   1.086   1_556  S
C469        C470   1.341   1_556  D
C469        H471   1.087       .  S
C470        H472   1.087   1_565  S
C473        C474   1.209       .  T
C474        C475   1.418       .  S
C475        C476   1.209       .  T
C477        C478   1.208       .  T
C478        C479   1.416       .  S
C479        C480   1.208       .  T
C481        C482   1.211       .  T
C482        C483   1.420       .  S
C483        C484   1.211       .  T
C485        C486   1.211       .  T
C486        C487   1.420       .  S
C487        C488   1.211       .  T
C489        C490   1.342       .  D
C489        H491   1.086       .  S
C490        H492   1.086       .  S
C493        C494   1.343       .  D
C493        H495   1.086       .  S
C494        H496   1.086       .  S
C497        C498   1.342       .  D
C497        H499   1.087       .  S
C498        H500   1.086       .  S
C501        C502   1.208       .  T
C502        C503   1.416       .  S
C503        C504   1.208       .  T
C505        C506   1.208       .  T
C506        C507   1.416       .  S
C507        C508   1.208       .  T
C509        C510   1.207       .  T
C510        C511   1.414       .  S
C511        C512   1.207       .  T
C513        C514   1.341       .  D
C513        H515   1.087       .  S
C514        H516   1.086       .  S
C517        C518   1.207       .  T
C518        C519   1.414       .  S
C519        C520   1.207       .  T
C521        C522   1.345       .  D
C521        H523   1.086       .  S
C522        H524   1.086       .  S
C525        C526   1.344       .  D
C525        H527   1.086       .  S
C526        H528   1.086       .  S
C529        C530   1.343       .  D
C529        H531   1.086       .  S
C530        H532   1.087       .  S
C533        C534   1.343       .  D
C533        H535   1.086       .  S
C534        H536   1.086       .  S
C537        C538   1.343       .  D
C537        H539   1.086       .  S
C538        H540   1.086       .  S
C541        C542   1.345   1_545  D
C541        H543   1.086   1_545  S
C542        H544   1.086       .  S
C545        C546   1.208       .  T
C546        C547   1.415       .  S
C547        C548   1.208       .  T
C549        C550   1.207       .  T
C550        C551   1.414       .  S
C551        C552   1.207       .  T
C553        C554   1.207       .  T
C554        C555   1.414       .  S
C555        C556   1.207       .  T
C557        C558   1.341       .  D
C557        H559   1.086       .  S
C558        H560   1.087       .  S
C561        C562   1.344   1_545  D
C561        H563   1.086       .  S
C562        H564   1.086   1_565  S
C565        C566   1.205       .  T
C566        C567   1.411       .  S
C567        C568   1.205       .  T
