geometry optimzed in LAMMPS
_audit_creation_date              2020-11-30 
_audit_creation_method            'lammps2cif' 
_symmetry_space_group_name_H-M    'P1' 
_symmetry_Int_Tables_number       1 
_symmetry_cell_setting            triclinic 
loop_ 
_symmetry_equiv_pos_as_xyz 
  x,y,z 
_cell_length_a                    30.43244573 
_cell_length_b                    26.19119635858249 
_cell_length_c                    40.301946247883286 
_cell_angle_alpha                 90.05536953023287 
_cell_angle_beta                  90.00190407569693 
_cell_angle_gamma                 89.28691106719774 
loop_ 
_atom_site_label 
_atom_site_type_symbol 
_atom_site_fract_x 
_atom_site_fract_y 
_atom_site_fract_z 
_atom_site_charge 
N1          N  0.81571662  0.39920142  0.41227373    -0.27800
N2          N  0.82421042  0.42404311  0.44002710    -0.35600
C3          C  0.84132659  0.39141945  0.46229612     0.00600
C4          C  0.84326796  0.34354899  0.44808320     0.06600
C5          C  0.82712539  0.34969399  0.41622893    -0.06500
H6          H  0.85429624  0.40240110  0.48623591     0.07300
H7          H  0.82656282  0.32125026  0.39675527     0.08500
Cu8        Cu  0.84217979  0.99950899  0.45035496     0.44200
Cu9        Cu  0.79338337  0.43673650  0.37011258     0.42000
Cu10       Cu  0.78964111  0.06460080  0.38275561     0.43900
N11         N  0.84099585  0.07802367  0.44535873    -0.35200
N12         N  0.82063008  0.10258608  0.42108452    -0.29400
C13         C  0.82697537  0.15311999  0.42471881    -0.05500
C14         C  0.85293678  0.16021033  0.45242964     0.06700
C15         C  0.86138994  0.11194564  0.46476995     0.00500
H16         H  0.81571692  0.18208864  0.40747203     0.08100
H17         H  0.88194262  0.10209796  0.48578469     0.07200
N18         N  0.76053060  0.01730229  0.34816976    -0.36600
N19         N  0.76593593  0.48289851  0.33358807    -0.28800
C20         C  0.74685321  0.46669817  0.30545453    -0.04000
C21         C  0.72847172  0.50843905  0.28963742     0.04600
C22         C  0.74256930  0.03177182  0.31910887     0.02700
H23         H  0.74414013  0.42711421  0.29815880     0.07800
H24         H  0.74097873  0.07067333  0.31015002     0.06600
C25         C  0.62704131  0.98572361  0.24436863     0.86000
C26         C  0.64242661  0.45162972  0.22137879    -0.54200
C27         C  0.68657334  0.44736325  0.21647378     0.08900
C28         C  0.71275210  0.98929192  0.23889201     0.19900
C29         C  0.65142201  0.98691419  0.27792414    -0.55000
C30         C  0.69601052  0.98900451  0.27499410     0.09000
C31         C  0.64380241  0.03231963  0.22549489    -0.54500
C32         C  0.68834055  0.03446668  0.22267747     0.09600
H33         H  0.62019969  0.42025852  0.21680593     0.14100
H34         H  0.74909989  0.99083424  0.23674910    -0.00100
H35         H  0.63564476  0.98447345  0.30198697     0.14400
H36         H  0.62205441  0.06213516  0.21601385     0.14200
N37         N  0.74044102  0.34353892  0.17169453    -0.27800
N38         N  0.71753154  0.31789717  0.19379605    -0.35600
C39         C  0.69624623  0.35092921  0.21375178     0.00600
C40         C  0.70691428  0.39981061  0.20416450     0.06600
C41         C  0.73506226  0.39393230  0.17743459    -0.06500
H42         H  0.67400384  0.34014699  0.23342914     0.07300
H43         H  0.74853678  0.42390649  0.16219152     0.08500
Cu44       Cu  0.71627024  0.23928387  0.19558508     0.44200
Cu45       Cu  0.77350796  0.30661169  0.13342072     0.42000
Cu46       Cu  0.78707158  0.16598805  0.14130844     0.43900
N47         N  0.72143104  0.16076480  0.19675829    -0.35200
N48         N  0.74861768  0.13304104  0.17831069    -0.29400
C49         C  0.74271812  0.08321633  0.18552209    -0.05500
C50         C  0.70986107  0.08007744  0.20922994     0.06700
C51         C  0.69722431  0.12983031  0.21564656     0.00500
H52         H  0.75923362  0.05171053  0.17316135     0.08100
H53         H  0.67164334  0.14266612  0.23246572     0.07200
N54         N  0.80965153  0.20961706  0.10152897    -0.36600
N55         N  0.80257294  0.25936862  0.09813229    -0.28800
C56         C  0.81919626  0.27471333  0.06893776    -0.04000
C57         C  0.83780876  0.23293138  0.05331245     0.04600
C58         C  0.83180144  0.19240586  0.07473182     0.02700
H59         H  0.81946750  0.31385704  0.06041819     0.07800
H60         H  0.84301805  0.15342379  0.07123321     0.05600
C61         C  0.93432139  0.25929749  0.48390581     0.86000
C62         C  0.91352332  0.30327428  0.46422887    -0.54200
C63         C  0.86907591  0.30041513  0.46108214     0.08900
C64         C  0.84884711  0.25366016  0.47788250     0.19900
C65         C  0.90986517  0.22895911  0.02502141    -0.55000
C66         C  0.86530405  0.23419050  0.02339783     0.09000
C67         C  0.91835878  0.21016869  0.46689408    -0.54500
C68         C  0.87391929  0.20739229  0.46357870     0.09600
H69         H  0.93222037  0.33522194  0.45479134     0.14100
H70         H  0.81254329  0.25147284  0.47556091    -0.00100
H71         H  0.92687045  0.22005062  0.04801791     0.14400
H72         H  0.94008007  0.17887987  0.45960629     0.14200
N73         N  0.31420044  0.15008460  0.18417072    -0.27800
N74         N  0.34008448  0.17772540  0.20317954    -0.35600
C75         C  0.36345005  0.14678912  0.22316974     0.00600
C76         C  0.35123850  0.09717543  0.21691798     0.06600
C77         C  0.31983781  0.10041137  0.19210161    -0.06500
H78         H  0.38808098  0.15946722  0.24060840     0.07300
H79         H  0.30426909  0.06896672  0.17947502     0.08500
Cu80       Cu  0.34280944  0.25608966  0.20115240     0.44200
Cu81       Cu  0.27756726  0.18308664  0.14600670     0.42000
Cu82       Cu  0.27865706  0.32441228  0.14113053     0.43900
N83         N  0.33835488  0.33447875  0.19957511    -0.35200
N84         N  0.31376559  0.36062481  0.17839897    -0.29400
C85         C  0.31952095  0.41095223  0.18385370    -0.05500
C86         C  0.34943855  0.41602827  0.20948756     0.06700
C87         C  0.36070137  0.36693139  0.21870534     0.00500
H88         H  0.30522435  0.44127853  0.16900794     0.08100
H89         H  0.38455132  0.35556186  0.23729845     0.07200
N90         N  0.25183089  0.27672624  0.10535662    -0.36600
N91         N  0.25116732  0.22622608  0.10723944    -0.28800
C92         C  0.23143914  0.20778106  0.07993835    -0.04000
C93         C  0.21963087  0.24842257  0.05992238     0.04600
C94         C  0.23261457  0.29153635  0.07678786     0.02700
H95         H  0.22561618  0.16777990  0.07521441     0.07800
H96         H  0.22778191  0.33079715  0.06917111     0.06600
C97         C  0.12735178  0.25588128  0.48798520     0.86000
C98         C  0.14391588  0.20227117  0.47824933    -0.54200
C99         C  0.18847987  0.19753384  0.47679402     0.08900
C100        C  0.21295151  0.24606670  0.48693790     0.19900
C101        C  0.14860215  0.24284043  0.03036465    -0.55000
C102        C  0.19328750  0.24622056  0.02944987     0.09000
C103        C  0.15030666  0.29295155  0.46449294    -0.54500
C104        C  0.19492016  0.28827982  0.46414291     0.09600
H105        H  0.12219925  0.17096123  0.47230546     0.14100
H106        H  0.24932309  0.24194058  0.48648319    -0.00100
H107        H  0.13080905  0.24255051  0.05367648     0.14400
H108        H  0.13293421  0.32370286  0.45175906     0.14200
N109        N  0.24586491  0.09498983  0.43347770    -0.27800
N110        N  0.22005222  0.06856003  0.45323044    -0.35600
C111        C  0.19745699  0.10089493  0.47290315     0.00600
C112        C  0.21015549  0.15006561  0.46555505     0.06600
C113        C  0.24094228  0.14504957  0.44046935    -0.06500
H114        H  0.17242276  0.08956439  0.49040015     0.07300
H115        H  0.25601872  0.17559343  0.42665041     0.08500
Cu116      Cu  0.21530951  0.98997351  0.45125366     0.44200
Cu117      Cu  0.28029051  0.06071674  0.39480690     0.42000
Cu118      Cu  0.27365063  0.42858726  0.37917035     0.43900
N119        N  0.24039096  0.41177335  0.44807272    -0.35200
N120        N  0.24982114  0.38895479  0.41965102    -0.29400
C121        C  0.23839724  0.33950926  0.42166467    -0.05500
C122        C  0.22161066  0.33112826  0.45303449     0.06700
C123        C  0.22307176  0.37769263  0.46894263     0.00500
H124        H  0.23948052  0.31273623  0.40121366     0.08100
H125        H  0.20921278  0.38703024  0.49296233     0.07200
N126        N  0.30239313  0.47787625  0.34559411    -0.36600
N127        N  0.30471570  0.01741394  0.35557015    -0.28800
C128        C  0.32415812  0.03560623  0.32812584    -0.04000
C129        C  0.33630410  0.99473929  0.30841912     0.04600
C130        C  0.31915943  0.46481823  0.31585155     0.02700
H131        H  0.33038221  0.07552408  0.32344224     0.07800
H132        H  0.31910617  0.42665819  0.30556255     0.06600
C133        C  0.43299977  0.99573766  0.24789236     0.86000
C134        C  0.41691883  0.04653575  0.23322295    -0.54200
C135        C  0.37239273  0.05097295  0.23056540     0.08900
C136        C  0.34733724  0.00445511  0.24343161     0.19900
C137        C  0.40900947  0.99060640  0.28127617    -0.55000
C138        C  0.36453705  0.99653681  0.27901155     0.09000
C139        C  0.41610718  0.46398740  0.22318018    -0.54500
C140        C  0.37150778  0.46230412  0.22106599     0.09600
H141        H  0.43908221  0.07630011  0.22519264     0.14100
H142        H  0.31100287  0.00821763  0.24178565    -0.00100
H143        H  0.42786159  0.50600115  0.29823886     0.14400
H144        H  0.43692544  0.43268945  0.21455056     0.14200
C145        C  0.00850204  0.24609892  0.45771523    -0.09600
C146        C  0.98425310  0.26347456  0.48530964     0.06600
C147        C  0.00686210  0.26268976  0.01859372    -0.03400
C148        C  0.05270077  0.25984615  0.01960944    -0.07900
C149        C  0.07748184  0.26160616  0.48615159     0.05700
C150        C  0.05423955  0.24598429  0.45755445    -0.02900
Br151      Br  0.08223557  0.22608529  0.41660191    -0.02600
H152        H  0.99176905  0.23297060  0.43565790     0.09600
H153        H  0.06906374  0.28102402  0.03890517     0.07600
Br154      Br  0.97964006  0.30796262  0.05039192    -0.03000
C155        C  0.50511003  0.49897353  0.21051679    -0.09600
C156        C  0.48320999  0.99240473  0.24872783     0.06600
C157        C  0.50920296  0.01315799  0.27453024    -0.03400
C158        C  0.55501716  0.00821708  0.27332142    -0.07900
C159        C  0.57681177  0.98622245  0.24584076     0.05700
C160        C  0.55062406  0.49687639  0.20783710    -0.02900
Br161      Br  0.57347519  0.47698625  0.16509456    -0.02600
H162        H  0.48597247  0.48840949  0.18898914     0.09600
H163        H  0.57349664  0.02533917  0.29322707     0.07600
Br164      Br  0.48646180  0.05549480  0.30980549    -0.03000
N165        N  0.81308981  0.39347178  0.93166131    -0.27800
N166        N  0.83806969  0.42086615  0.95155004    -0.35600
C167        C  0.86098379  0.38949205  0.97161486     0.00600
C168        C  0.84947584  0.33986532  0.96448998     0.06600
C169        C  0.81896245  0.34361449  0.93906309    -0.06500
H170        H  0.88534418  0.40184024  0.98936754     0.07300
H171        H  0.80452638  0.31238466  0.92546239     0.08500
Cu172      Cu  0.81919767  0.00212378  0.94397662     0.44200
Cu173      Cu  0.77790707  0.42630193  0.89245251     0.42000
Cu174      Cu  0.78146011  0.07665486  0.87527122     0.43900
N175        N  0.82180130  0.08063270  0.94290615    -0.35200
N176        N  0.80828422  0.10893819  0.91768754    -0.29400
C177        C  0.81947248  0.15784576  0.92337363    -0.05500
C178        C  0.84093727  0.15986002  0.95361162     0.06700
C179        C  0.84205673  0.11031933  0.96512055     0.00500
H180        H  0.81518007  0.18874011  0.90582167     0.08100
H181        H  0.85892909  0.09634205  0.98700807     0.07200
N182        N  0.75936924  0.03281321  0.83576765    -0.36600
N183        N  0.75391937  0.46784542  0.85193310    -0.28800
C184        C  0.73146517  0.44975083  0.82573186    -0.04000
C185        C  0.72353147  0.48968174  0.80402374     0.04600
C186        C  0.73605799  0.04960811  0.80950767     0.02700
H187        H  0.72103926  0.41066025  0.82294887     0.07800
H188        H  0.72503510  0.08864617  0.80594902     0.06600
C189        C  0.62560355  0.00466989  0.73339923     0.86000
C190        C  0.64639766  0.43918947  0.72712257    -0.54200
C191        C  0.69089994  0.44163921  0.72341174     0.08900
C192        C  0.71068091  0.99568375  0.72548187     0.19900
C193        C  0.65220841  0.01183224  0.76570261    -0.55000
C194        C  0.69654124  0.00695544  0.76137865     0.09000
C195        C  0.64517153  0.04338263  0.70927026    -0.54500
C196        C  0.68951628  0.03917531  0.70533131     0.09600
H197        H  0.62778847  0.40609975  0.71945836     0.14100
H198        H  0.74681179  0.99187407  0.72215920    -0.00100
H199        H  0.63824388  0.01730953  0.79017594     0.14400
H200        H  0.62605674  0.07478856  0.69879174     0.14200
N201        N  0.75172705  0.34943900  0.67321850    -0.27800
N202        N  0.73452555  0.31966272  0.69611363    -0.35600
C203        C  0.71244857  0.34835507  0.71822805     0.00600
C204        C  0.71642145  0.39885098  0.70928413     0.06600
C205        C  0.74150956  0.39844086  0.68059101    -0.06500
H206        H  0.69307609  0.33333877  0.73844159     0.07300
H207        H  0.74892539  0.43081822  0.66499781     0.08500
Cu208      Cu  0.73670914  0.24122056  0.69453417     0.44200
Cu209      Cu  0.78184736  0.31909095  0.63100553     0.42000
Cu210      Cu  0.77388105  0.17791767  0.62140483     0.43900
N211        N  0.73326666  0.16354015  0.68801911    -0.35200
N212        N  0.74618998  0.13929195  0.66090782    -0.29400
C213        C  0.73509678  0.08975071  0.66340006    -0.05500
C214        C  0.71440452  0.08315757  0.69361463     0.06700
C215        C  0.71363682  0.13058571  0.70842200     0.00500
H216        H  0.73944483  0.06157123  0.64399339     0.08100
H217        H  0.69771656  0.14097337  0.73152406     0.07200
N218        N  0.80059134  0.22696980  0.58668781    -0.36600
N219        N  0.80462372  0.27698527  0.59040776    -0.28800
C220        C  0.82647796  0.29554363  0.56411876    -0.04000
C221        C  0.83583551  0.25556979  0.54281077     0.04600
C222        C  0.81931100  0.21269795  0.55785579     0.02700
H223        H  0.83600240  0.33493548  0.56121770     0.07800
H224        H  0.82257967  0.17366085  0.54932591     0.05600
C225        C  0.93326519  0.23779019  0.99172594     0.86000
C226        C  0.91613561  0.28957039  0.97918887    -0.54200
C227        C  0.87154326  0.29333061  0.97702110     0.08900
C228        C  0.84749308  0.24514328  0.98829516     0.19900
C229        C  0.90957109  0.25847347  0.51721581    -0.55000
C230        C  0.86502443  0.25669159  0.51393811     0.09000
C231        C  0.91182807  0.19779564  0.96891245    -0.54500
C232        C  0.86712554  0.20172751  0.96714734     0.09600
H233        H  0.93769933  0.32042243  0.97201583     0.14100
H234        H  0.81109769  0.24833897  0.98704453    -0.00100
H235        H  0.92529222  0.25646897  0.54131003     0.14400
H236        H  0.92938667  0.16577375  0.95780456     0.14200
N237        N  0.30941145  0.15414542  0.67441623    -0.27800
N238        N  0.32311160  0.18026753  0.70038349    -0.35600
C239        C  0.34281193  0.14837849  0.72185948     0.00600
C240        C  0.34088072  0.09964234  0.70907249     0.06600
C241        C  0.31968179  0.10442866  0.67886217    -0.06500
H242        H  0.35966315  0.16021845  0.74418249     0.07300
H243        H  0.31501670  0.07481050  0.66051196     0.08500
Cu244      Cu  0.31971815  0.25850042  0.70362974     0.44200
Cu245      Cu  0.28290223  0.19037423  0.63323479     0.42000
Cu246      Cu  0.27096627  0.33169083  0.63827306     0.43900
N247        N  0.32013066  0.33688997  0.70242126    -0.35200
N248        N  0.30222653  0.36503248  0.67869892    -0.29400
C249        C  0.31277067  0.41432007  0.68392390    -0.05500
C250        C  0.33858024  0.41654096  0.71219679     0.06700
C251        C  0.34261835  0.36688943  0.72309754     0.00500
H252        H  0.30508595  0.44539153  0.66714893     0.08100
H253        H  0.36270018  0.35314073  0.74346644     0.07200
N254        N  0.24938152  0.28658916  0.59902326    -0.36600
N255        N  0.25560699  0.23653800  0.59671751    -0.28800
C256        C  0.23867658  0.22002307  0.56789763    -0.04000
C257        C  0.22074258  0.26139019  0.55148096     0.04600
C258        C  0.22757261  0.30290361  0.57189473     0.02700
H259        H  0.23773494  0.18048587  0.56019349     0.07800
H260        H  0.21704468  0.34192811  0.56755490     0.06600
C261        C  0.12731496  0.23541934  0.99592076     0.86000
C262        C  0.15072708  0.18704161  0.98300593    -0.54200
C263        C  0.19534959  0.19077161  0.98143783     0.08900
C264        C  0.21310976  0.24174580  0.99440195     0.19900
C265        C  0.14945703  0.26492201  0.52197866    -0.55000
C266        C  0.19408586  0.25956980  0.52124391     0.09000
C267        C  0.14445053  0.27955447  0.97494705    -0.54500
C268        C  0.18898299  0.28324813  0.97425855     0.09600
H269        H  0.13371118  0.15231318  0.97636948     0.14100
H270        H  0.24949901  0.24448434  0.99385255    -0.00100
H271        H  0.13218543  0.27166001  0.54510090     0.14400
H272        H  0.12287693  0.30748724  0.96312932     0.14200
N273        N  0.26061098  0.09749665  0.93603472    -0.27800
N274        N  0.24219302  0.06818254  0.95861919    -0.35600
C275        C  0.21876683  0.09750125  0.97963966     0.00600
C276        C  0.22315284  0.14784379  0.97019409     0.06600
C277        C  0.24991829  0.14661632  0.94244694    -0.06500
H278        H  0.19763867  0.08297740  0.99897395     0.07300
H279        H  0.25743663  0.17836260  0.92634352     0.08500
Cu280      Cu  0.24355942  0.98943571  0.95658868     0.44200
Cu281      Cu  0.29053699  0.06682670  0.89411464     0.42000
Cu282      Cu  0.27665062  0.41981534  0.89031196     0.43900
N283        N  0.21964202  0.41109806  0.95054329    -0.35200
N284        N  0.24305485  0.38466197  0.92870638    -0.29400
C285        C  0.23796258  0.33438263  0.93468593    -0.05500
C286        C  0.20984777  0.32951108  0.96144183     0.06700
C287        C  0.19876523  0.37871907  0.97067576     0.00500
H288        H  0.25170299  0.30389661  0.91964756     0.08100
H289        H  0.17614487  0.39016211  0.99010784     0.07200
N290        N  0.30310484  0.46698323  0.85422839    -0.36600
N291        N  0.30940079  0.02688297  0.85176354    -0.28800
C292        C  0.33182471  0.04592503  0.82594457    -0.04000
C293        C  0.33733844  0.00763214  0.80274584     0.04600
C294        C  0.32245173  0.45191171  0.82577938     0.02700
H295        H  0.34404940  0.08445947  0.82450916     0.07800
H296        H  0.32798039  0.41257373  0.81854411     0.06600
C297        C  0.43248252  0.01223824  0.74088408     0.86000
C298        C  0.41130511  0.05769339  0.72292461    -0.54200
C299        C  0.36667134  0.05590774  0.72114305     0.08900
C300        C  0.34659560  0.00870353  0.73747413     0.19900
C301        C  0.40965618  0.01019527  0.77492528    -0.55000
C302        C  0.36490849  0.00939839  0.77302338     0.09000
C303        C  0.40967371  0.45444077  0.72675058    -0.54500
C304        C  0.36509740  0.45912010  0.72439281     0.09600
H305        H  0.43001313  0.08954992  0.71335977     0.14100
H306        H  0.31015515  0.00742451  0.73628244    -0.00100
H307        H  0.42374658  0.48133417  0.80466411     0.14400
H308        H  0.42722487  0.42147056  0.71679541     0.14200
C309        C  0.00803655  0.21534897  0.96714006    -0.09600
C310        C  0.98347892  0.23648735  0.99351937     0.06600
C311        C  0.00750497  0.28906858  0.51072611    -0.03400
C312        C  0.05340864  0.28599937  0.51159329    -0.07900
C313        C  0.07715452  0.23405341  0.99497460     0.05700
C314        C  0.05392849  0.21557710  0.96702258    -0.02900
Br315      Br  0.08152967  0.19570316  0.92587930    -0.02600
H316        H  0.99187522  0.20144746  0.94512853     0.09600
H317        H  0.06991787  0.30565166  0.53145965     0.07600
Br318      Br  0.98084827  0.33594406  0.54178199    -0.03000
C319        C  0.50377510  0.47602269  0.71993558    -0.09600
C320        C  0.48257129  0.01485787  0.74009431     0.06600
C321        C  0.50901573  0.03629135  0.76537867    -0.03400
C322        C  0.55483953  0.03216906  0.76322646    -0.07900
C323        C  0.57569878  0.01020744  0.73533994     0.05700
C324        C  0.54948322  0.47409637  0.71784073    -0.02900
Br325      Br  0.57297097  0.45954292  0.67445522    -0.02600
H326        H  0.48535257  0.46682019  0.69781639     0.09600
H327        H  0.57374158  0.04914439  0.78289322     0.07600
Br328      Br  0.48700725  0.07920925  0.80060240    -0.03000
N329        N  0.81342570  0.89348780  0.43230100    -0.27800
N330        N  0.83827613  0.92088980  0.45227892    -0.35600
C331        C  0.86116640  0.88950551  0.47235616     0.00600
C332        C  0.84976511  0.83987116  0.46514373     0.06600
C333        C  0.81935126  0.84362428  0.43965351    -0.06500
H334        H  0.88545114  0.90185200  0.49016830     0.07300
H335        H  0.80503853  0.81239991  0.42597059     0.08500
Cu336      Cu  0.81917516  0.50218258  0.44470101     0.44200
Cu337      Cu  0.77842170  0.92629031  0.39300674     0.42000
Cu338      Cu  0.78226398  0.57677462  0.37568144     0.43900
N339        N  0.82187957  0.58071577  0.44358467    -0.35200
N340        N  0.80869040  0.60899034  0.41825279    -0.29400
C341        C  0.81993421  0.65787454  0.42393923    -0.05500
C342        C  0.84107086  0.65993429  0.45430293     0.06700
C343        C  0.84196769  0.61042268  0.46588097     0.00500
H344        H  0.81593469  0.68870867  0.40630696     0.08100
H345        H  0.85862878  0.59646320  0.48786419     0.07200
N346        N  0.76044257  0.53299642  0.33607395    -0.36600
N347        N  0.75476924  0.96769513  0.35233336    -0.28800
C348        C  0.73239246  0.94954062  0.32611465    -0.04000
C349        C  0.72470371  0.98936995  0.30428421     0.04600
C350        C  0.73717345  0.54974695  0.30978155     0.02700
H351        H  0.72184643  0.91048200  0.32340309     0.07800
H352        H  0.72605583  0.58875167  0.30622710     0.06600
C353        C  0.62703748  0.50447981  0.23349390     0.86000
C354        C  0.64781730  0.93886982  0.22722293    -0.54200
C355        C  0.69233094  0.94130292  0.22360094     0.08900
C356        C  0.71213867  0.49553907  0.22573209     0.19900
C357        C  0.65354411  0.51184524  0.26582337    -0.55000
C358        C  0.69789225  0.50698742  0.26157878     0.09000
C359        C  0.64664413  0.54308713  0.20930572    -0.54500
C360        C  0.69100196  0.53889871  0.20545005     0.09600
H361        H  0.62922913  0.90579139  0.21950964     0.14100
H362        H  0.74828062  0.49174324  0.22247009    -0.00100
H363        H  0.63950230  0.51741998  0.29026307     0.14400
H364        H  0.62754074  0.57442295  0.19872855     0.14200
N365        N  0.75265597  0.84912677  0.17311007    -0.27800
N366        N  0.73601233  0.81937795  0.19626041    -0.35600
C367        C  0.71425689  0.84809691  0.21854797     0.00600
C368        C  0.71788479  0.89857151  0.20944097     0.06600
C369        C  0.74239733  0.89811384  0.18047226    -0.06500
H370        H  0.69526665  0.83310203  0.23897437     0.07300
H371        H  0.74934150  0.93043010  0.16469635     0.08500
Cu372      Cu  0.73834922  0.74089943  0.19474566     0.44200
Cu373      Cu  0.78202158  0.81883680  0.13059497     0.42000
Cu374      Cu  0.77403669  0.67785463  0.12101186     0.43900
N375        N  0.73479781  0.66321771  0.18810323    -0.35200
N376        N  0.74708679  0.63913644  0.16076310    -0.29400
C377        C  0.73592746  0.58961859  0.16322774    -0.05500
C378        C  0.71590604  0.58282763  0.19367594     0.06700
C379        C  0.71554982  0.63014384  0.20864184     0.00500
H380        H  0.73974931  0.56160024  0.14366399     0.08100
H381        H  0.70008026  0.64040178  0.23194041     0.07200
N382        N  0.80030529  0.72687363  0.08609385    -0.36600
N383        N  0.80433166  0.77688542  0.08980151    -0.28800
C384        C  0.82601257  0.79546771  0.06343983    -0.04000
C385        C  0.83525923  0.75550984  0.04208968     0.04600
C386        C  0.81886507  0.71261825  0.05720040     0.02700
H387        H  0.83560899  0.83483810  0.06055856     0.07800
H388        H  0.82221926  0.67357027  0.04870846     0.05600
C389        C  0.93361260  0.73776441  0.49223308     0.86000
C390        C  0.91646550  0.78954312  0.47969871    -0.54200
C391        C  0.87186765  0.79333762  0.47763579     0.08900
C392        C  0.84783360  0.74519045  0.48899499     0.19900
C393        C  0.90913336  0.75835499  0.01674962    -0.55000
C394        C  0.86460860  0.75659308  0.01331017     0.09000
C395        C  0.91204984  0.69774501  0.46950428    -0.54500
C396        C  0.86734888  0.70172255  0.46783786     0.09600
H397        H  0.93801564  0.82037081  0.47245772     0.14100
H398        H  0.81143490  0.74841827  0.48782481    -0.00100
H399        H  0.92470189  0.75634158  0.04090066     0.14400
H400        H  0.92953824  0.66569662  0.45836617     0.14200
N401        N  0.31022781  0.65362665  0.17447234    -0.27800
N402        N  0.32468604  0.67984391  0.20015474    -0.35600
C403        C  0.34478861  0.64801746  0.22144937     0.00600
C404        C  0.34235372  0.59921136  0.20885039     0.06600
C405        C  0.32039670  0.60387924  0.17893650    -0.06500
H406        H  0.36217842  0.65992326  0.24351882     0.07300
H407        H  0.31511052  0.57414260  0.16077119     0.08500
Cu408      Cu  0.32156009  0.75805726  0.20326978     0.44200
Cu409      Cu  0.28284774  0.68988344  0.13361500     0.42000
Cu410      Cu  0.27110194  0.83141089  0.13880264     0.43900
N411        N  0.32179393  0.83641466  0.20223929    -0.35200
N412        N  0.30319299  0.86467576  0.17888215    -0.29400
C413        C  0.31362116  0.91398568  0.18417813    -0.05500
C414        C  0.34011902  0.91606397  0.21209528     0.06700
C415        C  0.34463816  0.86633095  0.22272902     0.00500
H416        H  0.30533500  0.94520025  0.16767227     0.08100
H417        H  0.36518841  0.85249933  0.24280883     0.07200
N418        N  0.24900326  0.78629755  0.09971927    -0.36600
N419        N  0.25514972  0.73623452  0.09735539    -0.28800
C420        C  0.23804968  0.71981367  0.06857186    -0.04000
C421        C  0.22007419  0.76124182  0.05225090     0.04600
C422        C  0.22707400  0.80270543  0.07266719     0.02700
H423        H  0.23713736  0.68031238  0.06078635     0.07800
H424        H  0.21669524  0.84178543  0.06833822     0.06600
C425        C  0.12769347  0.73545437  0.49558690     0.86000
C426        C  0.15102762  0.68709849  0.48256480    -0.54200
C427        C  0.19563356  0.69086725  0.48075865     0.08900
C428        C  0.21347136  0.74186993  0.49362063     0.19900
C429        C  0.14897158  0.76493139  0.02248677    -0.55000
C430        C  0.19360697  0.75958549  0.02191679     0.09000
C431        C  0.14460261  0.77959617  0.47451660    -0.54500
C432        C  0.18912639  0.78334556  0.47359794     0.09600
H433        H  0.13397236  0.65234629  0.47603991     0.14100
H434        H  0.24985174  0.74464741  0.49288880    -0.00100
H435        H  0.13154238  0.77164000  0.04554492     0.14400
H436        H  0.12289513  0.80749215  0.46280243     0.14200
N437        N  0.26094440  0.59755963  0.43535184    -0.27800
N438        N  0.24233406  0.56823730  0.45784036    -0.35600
C439        C  0.21884006  0.59754568  0.47881821     0.00600
C440        C  0.22335777  0.64789966  0.46944979     0.06600
C441        C  0.25029657  0.64669194  0.44179081    -0.06500
H442        H  0.19761216  0.58301333  0.49808761     0.07300
H443        H  0.25800659  0.67847612  0.42577351     0.08500
Cu444      Cu  0.24359847  0.48951155  0.45579554     0.44200
Cu445      Cu  0.29119675  0.56683563  0.39355645     0.42000
Cu446      Cu  0.27775194  0.91976571  0.39005640     0.43900
N447        N  0.21956534  0.91118320  0.44963011    -0.35200
N448        N  0.24352897  0.88469409  0.42816077    -0.29400
C449        C  0.23851550  0.83443259  0.43425371    -0.05500
C450        C  0.20982705  0.82963897  0.46066690     0.06700
C451        C  0.19837865  0.87886419  0.46961019     0.00500
H452        H  0.25275440  0.80389173  0.41952513     0.08100
H453        H  0.17540420  0.89035706  0.48879298     0.07200
N454        N  0.30432658  0.96689917  0.35400382    -0.36600
N455        N  0.31040570  0.52670284  0.35134268    -0.28800
C456        C  0.33294205  0.54567228  0.32555321    -0.04000
C457        C  0.33861992  0.50728887  0.30243422     0.04600
C458        C  0.32385528  0.95177482  0.32563723     0.02700
H459        H  0.34510131  0.58423146  0.32407455     0.07800
H460        H  0.32953269  0.91242432  0.31849066     0.06600
C461        C  0.43390151  0.51179684  0.24068842     0.86000
C462        C  0.41274631  0.55719959  0.22266979    -0.54200
C463        C  0.36811645  0.55539091  0.22082805     0.08900
C464        C  0.34802435  0.50819957  0.23716611     0.19900
C465        C  0.41100321  0.50981211  0.27470277    -0.55000
C466        C  0.36625885  0.50898415  0.27274385     0.09000
C467        C  0.41113011  0.95411465  0.22667219    -0.54500
C468        C  0.36655495  0.95873036  0.22426433     0.09600
H469        H  0.43146435  0.58907577  0.21314277     0.14100
H470        H  0.31158749  0.50689901  0.23593110    -0.00100
H471        H  0.42506441  0.98131372  0.30454772     0.14400
H472        H  0.42873153  0.92113362  0.21677988     0.14200
C473        C  0.00820091  0.71532123  0.46736640    -0.09600
C474        C  0.98383631  0.73640868  0.49386374     0.06600
C475        C  0.00707730  0.78900004  0.01064858    -0.03400
C476        C  0.05297436  0.78594241  0.01171160    -0.07900
C477        C  0.07752712  0.73402634  0.49489597     0.05700
C478        C  0.05408661  0.71556056  0.46704682    -0.02900
Br479      Br  0.08136229  0.69571626  0.42577673    -0.02600
H480        H  0.99188033  0.70146067  0.44541148     0.09600
H481        H  0.06933650  0.80560664  0.03164321     0.07600
Br482      Br  0.98017991  0.83589494  0.04157604    -0.03000
C483        C  0.50520352  0.97573777  0.21988201    -0.09600
C484        C  0.48398698  0.51446238  0.23996234     0.06600
C485        C  0.51033332  0.53612532  0.26521937    -0.03400
C486        C  0.55616824  0.53207294  0.26314515    -0.07900
C487        C  0.57712555  0.50996643  0.23534675     0.05700
C488        C  0.55091318  0.97377463  0.21783409    -0.02900
Br489      Br  0.57446362  0.95911842  0.17448358    -0.02600
H490        H  0.48681525  0.96648361  0.19775635     0.09600
H491        H  0.57500009  0.54920938  0.28279224     0.07600
Br492      Br  0.48814802  0.57923798  0.30028051    -0.03000
N493        N  0.81524820  0.89902263  0.91176689    -0.27800
N494        N  0.82419815  0.92400063  0.93938340    -0.35600
C495        C  0.84161351  0.89148794  0.96158482     0.00600
C496        C  0.84327748  0.84354029  0.94747975     0.06600
C497        C  0.82663661  0.84950986  0.91575516    -0.06500
H498        H  0.85488846  0.90257441  0.98540700     0.07300
H499        H  0.82568455  0.82093082  0.89637653     0.08500
Cu500      Cu  0.84207805  0.49945754  0.94957272     0.44200
Cu501      Cu  0.79233642  0.93644617  0.86972636     0.42000
Cu502      Cu  0.78873265  0.56473409  0.88243812     0.43900
N503        N  0.84089209  0.57796793  0.94466086    -0.35200
N504        N  0.82018344  0.60261762  0.92058879    -0.29400
C505        C  0.82653845  0.65314307  0.92426777    -0.05500
C506        C  0.85289268  0.66012342  0.95177855     0.06700
C507        C  0.86153293  0.61181463  0.96397187     0.00500
H508        H  0.81498295  0.68218740  0.90718439     0.08100
H509        H  0.88231716  0.60189213  0.98484260     0.07200
N510        N  0.75949973  0.51750478  0.84787288    -0.36600
N511        N  0.76474032  0.98269359  0.83329340    -0.28800
C512        C  0.74552671  0.96652994  0.80520004    -0.04000
C513        C  0.72719779  0.00831339  0.78939462     0.04600
C514        C  0.74133882  0.53207081  0.81890239     0.02700
H515        H  0.74272169  0.92695148  0.79791410     0.07800
H516        H  0.73960288  0.57101668  0.81003549     0.06600
C517        C  0.62565805  0.48603491  0.74429535     0.86000
C518        C  0.64091678  0.95187485  0.72114018    -0.54200
C519        C  0.68505078  0.94757910  0.71616109     0.08900
C520        C  0.71135164  0.48964745  0.73865253     0.19900
C521        C  0.65015086  0.48726275  0.77780555    -0.55000
C522        C  0.69473148  0.48936194  0.77478914     0.09000
C523        C  0.64233527  0.53262326  0.72537770    -0.54500
C524        C  0.68686377  0.53480502  0.72247651     0.09600
H525        H  0.61864589  0.92055428  0.71654563     0.14100
H526        H  0.74769120  0.49120427  0.73644237    -0.00100
H527        H  0.63446037  0.48481155  0.80189881     0.14400
H528        H  0.62053299  0.56239868  0.71591457     0.14200
N529        N  0.73943548  0.84383939  0.67160160    -0.27800
N530        N  0.71592394  0.81814414  0.69330685    -0.35600
C531        C  0.69429042  0.85111842  0.71308590     0.00600
C532        C  0.70533119  0.90001944  0.70379846     0.06600
C533        C  0.73409342  0.89421420  0.67743489    -0.06500
H534        H  0.67163331  0.84028264  0.73247790     0.07300
H535        H  0.74808603  0.92423885  0.66250936     0.08500
Cu536      Cu  0.71450687  0.73953965  0.69492973     0.44200
Cu537      Cu  0.77333814  0.80697686  0.63372393     0.42000
Cu538      Cu  0.78654026  0.66623468  0.64163344     0.43900
N539        N  0.71978070  0.66104972  0.69629226    -0.35200
N540        N  0.74743618  0.63331816  0.67824987    -0.29400
C541        C  0.74161124  0.58352252  0.68558615    -0.05500
C542        C  0.70830298  0.58040977  0.70893653     0.06700
C543        C  0.69534170  0.63015187  0.71502747     0.00500
H544        H  0.75855336  0.55200011  0.67356939     0.08100
H545        H  0.66945470  0.64301074  0.73157200     0.07200
N546        N  0.80973800  0.70988953  0.60207458    -0.36600
N547        N  0.80282966  0.75967344  0.59867525    -0.28800
C548        C  0.81973790  0.77499268  0.56957198    -0.04000
C549        C  0.83836597  0.73316471  0.55401834     0.04600
C550        C  0.83205645  0.69262617  0.57536920     0.02700
H551        H  0.82007689  0.81412297  0.56103064     0.07800
H552        H  0.84308498  0.65357866  0.57185255     0.05600
C553        C  0.93409641  0.75919692  0.98353538     0.86000
C554        C  0.91343136  0.80319092  0.96379811    -0.54200
C555        C  0.86900290  0.80034068  0.96048073     0.08900
C556        C  0.84865921  0.75358145  0.97719422     0.19900
C557        C  0.91034299  0.72902083  0.52559519    -0.55000
C558        C  0.86577570  0.73428679  0.52406180     0.09000
C559        C  0.91823755  0.71008260  0.96645234    -0.54500
C560        C  0.87381689  0.70731344  0.96297597     0.09600
H561        H  0.93219206  0.83515521  0.95445976     0.14100
H562        H  0.81236963  0.75140478  0.97474302    -0.00100
H563        H  0.92742949  0.72014621  0.54856188     0.14400
H564        H  0.94000290  0.67878934  0.95924514     0.14200
N565        N  0.31341188  0.65052698  0.68419015    -0.27800
N566        N  0.33868346  0.67816774  0.70366944    -0.35600
C567        C  0.36171063  0.64718505  0.72385737     0.00600
C568        C  0.34987570  0.59755062  0.71723915     0.06600
C569        C  0.31908971  0.60081954  0.69199740    -0.06500
H570        H  0.38591169  0.65983922  0.74164415     0.07300
H571        H  0.30403467  0.56939180  0.67899597     0.08500
Cu572      Cu  0.34116588  0.75657952  0.70185472     0.44200
Cu573      Cu  0.27763959  0.68353385  0.64558593     0.42000
Cu574      Cu  0.27854787  0.82475723  0.64071037     0.43900
N575        N  0.33676853  0.83498026  0.70003592    -0.35200
N576        N  0.31280591  0.86103374  0.67840800    -0.29400
C577        C  0.31861279  0.91137954  0.68373779    -0.05500
C578        C  0.34787945  0.91657685  0.70978172     0.06700
C579        C  0.35874473  0.86752607  0.71935263     0.00500
H580        H  0.30486730  0.94161569  0.66852833     0.08100
H581        H  0.38217263  0.85624343  0.73826845     0.07200
N582        N  0.25232743  0.77703642  0.60469676    -0.36600
N583        N  0.25175263  0.72653805  0.60658004    -0.28800
C584        C  0.23226078  0.70802540  0.57920361    -0.04000
C585        C  0.22053002  0.74861996  0.55912259     0.04600
C586        C  0.23327715  0.79178188  0.57605092     0.02700
H587        H  0.22640502  0.66801967  0.57452408     0.07800
H588        H  0.22826725  0.83103091  0.56847070     0.06600
C589        C  0.12709318  0.75585279  0.98841051     0.86000
C590        C  0.14373842  0.70223678  0.97875633    -0.54200
C591        C  0.18831048  0.69752278  0.97747069     0.08900
C592        C  0.21269802  0.74607499  0.98768482     0.19900
C593        C  0.14928131  0.74292044  0.52991310    -0.55000
C594        C  0.19395361  0.74634956  0.52876961     0.09000
C595        C  0.15018846  0.79291385  0.96499016    -0.54500
C596        C  0.19480171  0.78825792  0.96480786     0.09600
H597        H  0.12207755  0.67090609  0.97274210     0.14100
H598        H  0.24907287  0.74196114  0.98736541    -0.00100
H599        H  0.13170008  0.74262771  0.55331578     0.14400
H600        H  0.13288933  0.82362419  0.95216012     0.14200
N601        N  0.24562851  0.59494682  0.93418196    -0.27800
N602        N  0.22008732  0.56852365  0.95414196    -0.35600
C603        C  0.19758389  0.60089048  0.97385627     0.00600
C604        C  0.21008014  0.65006856  0.96632103     0.06600
C605        C  0.24063106  0.64502538  0.94107832    -0.06500
H606        H  0.17271182  0.58957478  0.99148909     0.07300
H607        H  0.25544931  0.67555009  0.92707854     0.08500
Cu608      Cu  0.21547988  0.48990157  0.95231159     0.44200
Cu609      Cu  0.27967794  0.56067321  0.89532994     0.42000
Cu610      Cu  0.27273638  0.92876596  0.87960925     0.43900
N611        N  0.24033694  0.91170277  0.94875187    -0.35200
N612        N  0.24937644  0.88902454  0.92021105    -0.29400
C613        C  0.23792724  0.83958738  0.92220060    -0.05500
C614        C  0.22156758  0.83103357  0.95367957     0.06700
C615        C  0.22327504  0.87751608  0.96967681     0.00500
H616        H  0.23867477  0.81294398  0.90167251     0.08100
H617        H  0.20968128  0.88675077  0.99379810     0.07200
N618        N  0.30129375  0.97809712  0.84596076    -0.36600
N619        N  0.30370445  0.51748187  0.85591051    -0.28800
C620        C  0.32310648  0.53572144  0.82846421    -0.04000
C621        C  0.33500415  0.49490230  0.80863241     0.04600
C622        C  0.31789431  0.96513292  0.81614733     0.02700
H623        H  0.32949844  0.57562481  0.82387048     0.07800
H624        H  0.31777455  0.92700736  0.80580562     0.06600
C625        C  0.43161190  0.49596404  0.74802422     0.86000
C626        C  0.41554752  0.54684196  0.73345412    -0.54200
C627        C  0.37102433  0.55132615  0.73084373     0.08900
C628        C  0.34595107  0.50478810  0.74365408     0.19900
C629        C  0.40766565  0.49072647  0.78142038    -0.55000
C630        C  0.36319457  0.49671559  0.77920291     0.09000
C631        C  0.41462270  0.96447126  0.72335754    -0.54500
C632        C  0.37001679  0.96283022  0.72130415     0.09600
H633        H  0.43771272  0.57661968  0.72544559     0.14100
H634        H  0.30961732  0.50860361  0.74204138    -0.00100
H635        H  0.42655420  0.00627647  0.79843638     0.14400
H636        H  0.43539912  0.93316488  0.71468559     0.14200
C637        C  0.00846990  0.74597361  0.95765963    -0.09600
C638        C  0.98401684  0.76337311  0.98514441     0.06600
C639        C  0.00740538  0.76257676  0.51885308    -0.03400
C640        C  0.05325496  0.75975259  0.51966295    -0.07900
C641        C  0.07723684  0.76154397  0.98637542     0.05700
C642        C  0.05420725  0.74588563  0.95768729    -0.02900
Br643      Br  0.08250582  0.72597781  0.91685357    -0.02600
H644        H  0.99190230  0.73281857  0.93553760     0.09600
H645        H  0.06975841  0.78091752  0.53889496     0.07600
Br646      Br  0.98042664  0.80783248  0.55077542    -0.03000
C647        C  0.50360076  0.99949914  0.71058261    -0.09600
C648        C  0.48182370  0.49259658  0.74882120     0.06600
C649        C  0.50785632  0.51326345  0.77463282    -0.03400
C650        C  0.55367149  0.50834949  0.77337486    -0.07900
C651        C  0.57542900  0.48648772  0.74583475     0.05700
C652        C  0.54910845  0.99732808  0.70783548    -0.02900
Br653      Br  0.57183141  0.97763138  0.66501721    -0.02600
H654        H  0.48438913  0.98907813  0.68906150     0.09600
H655        H  0.57217428  0.52540328  0.79329182     0.07600
Br656      Br  0.48516463  0.55545343  0.81000057    -0.03000
loop_ 
_geom_bond_atom_site_label_1 
_geom_bond_atom_site_label_2 
_geom_bond_distance 
_geom_bond_site_symmetry_2 
_ccdc_geom_bond_type 
N1            N2   1.321       .  A
N1            C5   1.348       .  A
N1           Cu9   2.074       .  S
N2            C3   1.341       .  A
N2         Cu336   2.059       .  S
C3            C4   1.379       .  A
C3            H6   1.082       .  S
C4            C5   1.383       .  A
C4           C63   1.465       .  S
C5            H7   1.082       .  S
Cu8          N11   2.066   1_565  S
Cu8         N330   2.066       .  S
Cu9          N19   2.075       .  S
Cu10         N12   2.070       .  S
Cu10         N18   2.070       .  S
N11          N12   1.321       .  A
N11          C15   1.341       .  A
N12          C13   1.348       .  A
C13          C14   1.382       .  A
C13          H16   1.082       .  S
C14          C15   1.380       .  A
C14          C68   1.468       .  S
C15          H17   1.082       .  S
N18         N347   1.324   1_545  A
N18          C22   1.345       .  A
N19         N346   1.324       .  A
N19          C20   1.345       .  A
C20          C21   1.379       .  A
C20          H23   1.082       .  S
C21         C350   1.380       .  A
C21         C358   1.465       .  S
C22         C349   1.378   1_545  A
C22          H24   1.082       .  S
C25          C31   1.531   1_565  S
C25          C29   1.543       .  S
C25         C354   1.537       .  S
C25         C159   1.530       .  S
C26         C353   1.535       .  S
C26          H33   1.086       .  S
C26          C27   1.361       .  D
C27          C40   1.470       .  S
C27         C356   1.536       .  S
C28          C32   1.536   1_565  S
C28          C30   1.542       .  S
C28         C355   1.537       .  S
C28          H34   1.111       .  S
C29          H35   1.084       .  S
C29          C30   1.364       .  D
C30         C349   1.468       .  S
C31          H36   1.087       .  S
C31          C32   1.362       .  D
C32          C50   1.473       .  S
N37          N38   1.320       .  A
N37          C41   1.348       .  A
N37         Cu45   2.074       .  S
N38          C39   1.342       .  A
N38         Cu44   2.061       .  S
C39          C40   1.380       .  A
C39          H42   1.083       .  S
C40          C41   1.384       .  A
C41          H43   1.082       .  S
Cu44         N47   2.061       .  S
Cu45         N55   2.075       .  S
Cu46         N48   2.089       .  S
Cu46         N54   2.091       .  S
N47          N48   1.322       .  A
N47          C51   1.340       .  A
N48          C49   1.351       .  A
C49          C50   1.386       .  A
C49          H52   1.082       .  S
C50          C51   1.378       .  A
C51          H53   1.082       .  S
N54          N55   1.325       .  A
N54          C58   1.347       .  A
N55          C56   1.345       .  A
C56          C57   1.378       .  A
C56          H59   1.082       .  S
C57          C58   1.383       .  A
C57          C66   1.468       .  S
C58          H60   1.082       .  S
C61          C62   1.530       .  S
C61          C67   1.541       .  S
C61         C229   1.540       .  S
C61         C146   1.526       .  S
C62          H69   1.087       .  S
C62          C63   1.362       .  D
C63          C64   1.535       .  S
C64          C68   1.536       .  S
C64         C230   1.537       .  S
C64          H70   1.111       .  S
C65         C225   1.538   1_554  S
C65          H71   1.086       .  S
C65          C66   1.363       .  D
C66         C228   1.541   1_554  S
C67          H72   1.087       .  S
C67          C68   1.362       .  D
N73          N74   1.321       .  A
N73          C77   1.349       .  A
N73         Cu81   2.082       .  S
N74          C75   1.341       .  A
N74         Cu80   2.057       .  S
C75          C76   1.379       .  A
C75          H78   1.082       .  S
C76          C77   1.385       .  A
C76         C135   1.471       .  S
C77          H79   1.082       .  S
Cu80         N83   2.057       .  S
Cu81         N91   2.084       .  S
Cu82         N84   2.078       .  S
Cu82         N90   2.080       .  S
N83          N84   1.321       .  A
N83          C87   1.339       .  A
N84          C85   1.350       .  A
C85          C86   1.384       .  A
C85          H88   1.082       .  S
C86          C87   1.378       .  A
C86         C140   1.469       .  S
C87          H89   1.083       .  S
N90          N91   1.325       .  A
N90          C94   1.347       .  A
N91          C92   1.346       .  A
C92          C93   1.380       .  A
C92          H95   1.081       .  S
C93          C94   1.379       .  A
C93         C102   1.468       .  S
C94          H96   1.082       .  S
C97          C98   1.537       .  S
C97         C103   1.532       .  S
C97         C265   1.546       .  S
C97         C149   1.525       .  S
C98         H105   1.086       .  S
C98          C99   1.362       .  D
C99         C112   1.471       .  S
C99         C100   1.536       .  S
C100        C104   1.534       .  S
C100        C266   1.536       .  S
C100        H106   1.111       .  S
C101        C261   1.545   1_554  S
C101        H107   1.084       .  S
C101        C102   1.364       .  D
C102        C264   1.540   1_554  S
C103        H108   1.087       .  S
C103        C104   1.362       .  D
C104        C122   1.464       .  S
N109        N110   1.321       .  A
N109        C113   1.347       .  A
N109       Cu117   2.075       .  S
N110        C111   1.343       .  A
N110       Cu116   2.067   1_545  S
C111        C112   1.382       .  A
C111        H114   1.083       .  S
C112        C113   1.383       .  A
C113        H115   1.082       .  S
Cu116       N447   2.067       .  S
Cu117       N127   2.077       .  S
Cu118       N120   2.071       .  S
Cu118       N126   2.072       .  S
N119        N120   1.321       .  A
N119        C123   1.340       .  A
N119       Cu444   2.063       .  S
N120        C121   1.348       .  A
C121        C122   1.382       .  A
C121        H124   1.082       .  S
C122        C123   1.378       .  A
C123        H125   1.082       .  S
N126        N455   1.325       .  A
N126        C130   1.345       .  A
N127        N454   1.325   1_545  A
N127        C128   1.345       .  A
C128        C129   1.379   1_545  A
C128        H131   1.082       .  S
C129        C458   1.380       .  A
C129        C138   1.465       .  S
C130        C457   1.378       .  A
C130        H132   1.082       .  S
C133        C134   1.531   1_565  S
C133        C137   1.538       .  S
C133        C467   1.542       .  S
C133        C156   1.530       .  S
C134        H141   1.087       .  S
C134        C135   1.363       .  D
C135        C136   1.536       .  S
C136        C138   1.540   1_545  S
C136        C468   1.534   1_545  S
C136        H142   1.111       .  S
C137        H471   1.084       .  S
C137        C138   1.363       .  D
C139        C461   1.541       .  S
C139        H144   1.087       .  S
C139        C140   1.361       .  D
C140        C464   1.534       .  S
H143        C465   1.082       .  S
C145        C146   1.407   1_455  A
C145        C150   1.392       .  A
C145        H152   1.082   1_455  S
C146        C311   1.418   1_655  A
C147        C148   1.397       .  A
C147        C310   1.418   1_454  A
C147       Br154   1.925   1_455  S
C148        C313   1.408   1_554  A
C148        H153   1.080       .  S
C149        C150   1.415       .  A
C149        C312   1.408       .  A
C150       Br151   1.926       .  S
C155        C160   1.390       .  A
C155        C484   1.407       .  A
C155        H162   1.083       .  S
C156        C157   1.418   1_565  A
C156        C483   1.408       .  A
C157        C158   1.399       .  A
C157       Br164   1.926       .  S
C158        C159   1.410   1_545  A
C158        H163   1.080       .  S
C159        C488   1.417       .  A
C160        C487   1.415       .  A
C160       Br161   1.927       .  S
N165        N166   1.322       .  A
N165        C169   1.349       .  A
N165       Cu173   2.089       .  S
N166        C167   1.343       .  A
N166       Cu500   2.065       .  S
C167        C168   1.380       .  A
C167        H170   1.082       .  S
C168        C169   1.386       .  A
C168        C227   1.474       .  S
C169        H171   1.082       .  S
Cu172       N494   2.058   1_545  S
Cu172       N175   2.059       .  S
Cu173       N183   2.090       .  S
Cu174       N176   2.078       .  S
Cu174       N182   2.079       .  S
N175        N176   1.321       .  A
N175        C179   1.340       .  A
N176        C177   1.349       .  A
C177        C178   1.384       .  A
C177        H180   1.082       .  S
C178        C179   1.378       .  A
C178        C232   1.468       .  S
C179        H181   1.082       .  S
N182        N511   1.324   1_545  A
N182        C186   1.345       .  A
N183        N510   1.324       .  A
N183        C184   1.347       .  A
C184        C185   1.383       .  A
C184        H187   1.081       .  S
C185        C514   1.378       .  A
C185        C522   1.469       .  S
C186        C513   1.380       .  A
C186        H188   1.082       .  S
C189        C518   1.535   1_545  S
C189        C195   1.531       .  S
C189        C193   1.546       .  S
C189        C323   1.526       .  S
C190        C517   1.537       .  S
C190        H197   1.086       .  S
C190        C191   1.365       .  D
C191        C204   1.470       .  S
C191        C520   1.537       .  S
C192        C519   1.536       .  S
C192        C196   1.535   1_565  S
C192        C194   1.537   1_565  S
C192        H198   1.111       .  S
C193        H199   1.083       .  S
C193        C194   1.365       .  D
C194        C513   1.465       .  S
C195        H200   1.087       .  S
C195        C196   1.362       .  D
C196        C214   1.465       .  S
N201        N202   1.321       .  A
N201        C205   1.350       .  A
N201       Cu209   2.085       .  S
N202        C203   1.340       .  A
N202       Cu208   2.056       .  S
C203        C204   1.378       .  A
C203        H206   1.083       .  S
C204        C205   1.386       .  A
C205        H207   1.082       .  S
Cu208       N211   2.055       .  S
Cu209       N219   2.086       .  S
Cu210       N212   2.072       .  S
Cu210       N218   2.073       .  S
N211        N212   1.321       .  A
N211        C215   1.339       .  A
N212        C213   1.349       .  A
C213        C214   1.383       .  A
C213        H216   1.082       .  S
C214        C215   1.378       .  A
C215        H217   1.083       .  S
N218        N219   1.326       .  A
N218        C222   1.345       .  A
N219        C220   1.345       .  A
C220        C221   1.380       .  A
C220        H223   1.082       .  S
C221        C222   1.377       .  A
C221        C230   1.464       .  S
C222        H224   1.082       .  S
C225        C226   1.533       .  S
C225        C231   1.544       .  S
C225        C310   1.530       .  S
C226        H233   1.087       .  S
C226        C227   1.362       .  D
C227        C228   1.536       .  S
C228        C232   1.535       .  S
C228        H234   1.111       .  S
C229        H235   1.084       .  S
C229        C230   1.363       .  D
C231        H236   1.085       .  S
C231        C232   1.365       .  D
N237        N238   1.320       .  A
N237        C241   1.347       .  A
N237       Cu245   2.071       .  S
N238        C239   1.340       .  A
N238       Cu244   2.054       .  S
C239        C240   1.378       .  A
C239        H242   1.083       .  S
C240        C241   1.383       .  A
C240        C299   1.464       .  S
C241        H243   1.082       .  S
Cu244       N247   2.054       .  S
Cu245       N255   2.073       .  S
Cu246       N248   2.083       .  S
Cu246       N254   2.084       .  S
N247        N248   1.321       .  A
N247        C251   1.339       .  A
N248        C249   1.350       .  A
C249        C250   1.386       .  A
C249        H252   1.082       .  S
C250        C251   1.377       .  A
C250        C304   1.469       .  S
C251        H253   1.083       .  S
N254        N255   1.325       .  A
N254        C258   1.346       .  A
N255        C256   1.344       .  A
C256        C257   1.377       .  A
C256        H259   1.082       .  S
C257        C258   1.381       .  A
C257        C266   1.465       .  S
C258        H260   1.082       .  S
C261        C262   1.536       .  S
C261        C267   1.530       .  S
C261        C313   1.528       .  S
C262        H269   1.085       .  S
C262        C263   1.364       .  D
C263        C276   1.470       .  S
C263        C264   1.538       .  S
C264        C268   1.537       .  S
C264        H270   1.111       .  S
C265        H271   1.083       .  S
C265        C266   1.364       .  D
C267        H272   1.087       .  S
C267        C268   1.360       .  D
C268        C286   1.469       .  S
N273        N274   1.321       .  A
N273        C277   1.348       .  A
N273       Cu281   2.076       .  S
N274        C275   1.342       .  A
N274       Cu280   2.064   1_545  S
C275        C276   1.381       .  A
C275        H278   1.083       .  S
C276        C277   1.384       .  A
C277        H279   1.082       .  S
Cu280       N611   2.064       .  S
Cu281       N291   2.078       .  S
Cu282       N284   2.077       .  S
Cu282       N290   2.078       .  S
N283        N284   1.322       .  A
N283        C287   1.340       .  A
N283       Cu608   2.067       .  S
N284        C285   1.350       .  A
C285        C286   1.384       .  A
C285        H288   1.082       .  S
C286        C287   1.379       .  A
C287        H289   1.082       .  S
N290        N619   1.325       .  A
N290        C294   1.346       .  A
N291        N618   1.325   1_545  A
N291        C292   1.344       .  A
C292        C293   1.379       .  A
C292        H295   1.082       .  S
C293        C622   1.378   1_545  A
C293        C302   1.464       .  S
C294        C621   1.380       .  A
C294        H296   1.082       .  S
C297        C298   1.529       .  S
C297        C631   1.541   1_545  S
C297        C301   1.539       .  S
C297        C320   1.527       .  S
C298        H305   1.087       .  S
C298        C299   1.362       .  D
C299        C300   1.535       .  S
C300        C632   1.534   1_545  S
C300        C302   1.537       .  S
C300        H306   1.111       .  S
C301        H635   1.082       .  S
C301        C302   1.364       .  D
C303        C625   1.543       .  S
C303        H308   1.086       .  S
C303        C304   1.364       .  D
C304        C628   1.534       .  S
H307        C629   1.084       .  S
C309        C310   1.409   1_455  A
C309        C314   1.397       .  A
C309        H316   1.079   1_455  S
C311        C312   1.399       .  A
C311       Br318   1.925   1_455  S
C312        H317   1.079       .  S
C313        C314   1.418       .  A
C314       Br315   1.927       .  S
C319        C648   1.408       .  A
C319        C324   1.394       .  A
C319        H326   1.082       .  S
C320        C647   1.407   1_545  A
C320        C321   1.418       .  A
C321        C322   1.400       .  A
C321       Br328   1.925       .  S
C322        C323   1.409       .  A
C322        H327   1.078       .  S
C323        C652   1.415   1_545  A
C324        C651   1.417       .  A
C324       Br325   1.925       .  S
N329        N330   1.322       .  A
N329        C333   1.349       .  A
N329       Cu337   2.088       .  S
N330        C331   1.343       .  A
C331        C332   1.380       .  A
C331        H334   1.082       .  S
C332        C333   1.385       .  A
C332        C391   1.474       .  S
C333        H335   1.082       .  S
Cu336       N339   2.060       .  S
Cu337       N347   2.089       .  S
Cu338       N340   2.078       .  S
Cu338       N346   2.078       .  S
N339        N340   1.321       .  A
N339        C343   1.341       .  A
N340        C341   1.349       .  A
C341        C342   1.384       .  A
C341        H344   1.082       .  S
C342        C343   1.379       .  A
C342        C396   1.468       .  S
C343        H345   1.082       .  S
N346        C350   1.345       .  A
N347        C348   1.347       .  A
C348        C349   1.383       .  A
C348        H351   1.081       .  S
C350        H352   1.082       .  S
C353        C359   1.532       .  S
C353        C357   1.546       .  S
C353        C487   1.526       .  S
C354        H361   1.086       .  S
C354        C355   1.365       .  D
C355        C368   1.470       .  S
C356        C360   1.535       .  S
C356        C358   1.537       .  S
C356        H362   1.111       .  S
C357        H363   1.083       .  S
C357        C358   1.365       .  D
C359        H364   1.087       .  S
C359        C360   1.362       .  D
C360        C378   1.465       .  S
N365        N366   1.321       .  A
N365        C369   1.349       .  A
N365       Cu373   2.084       .  S
N366        C367   1.341       .  A
N366       Cu372   2.057       .  S
C367        C368   1.378       .  A
C367        H370   1.083       .  S
C368        C369   1.385       .  A
C369        H371   1.082       .  S
Cu372       N375   2.056       .  S
Cu373       N383   2.085       .  S
Cu374       N376   2.072       .  S
Cu374       N382   2.073       .  S
N375        N376   1.321       .  A
N375        C379   1.339       .  A
N376        C377   1.348       .  A
C377        C378   1.383       .  A
C377        H380   1.082       .  S
C378        C379   1.378       .  A
C379        H381   1.083       .  S
N382        N383   1.325       .  A
N382        C386   1.345       .  A
N383        C384   1.345       .  A
C384        C385   1.380       .  A
C384        H387   1.082       .  S
C385        C386   1.377       .  A
C385        C394   1.464       .  S
C386        H388   1.082       .  S
C389        C390   1.533       .  S
C389        C395   1.544       .  S
C389        C557   1.538       .  S
C389        C474   1.530       .  S
C390        H397   1.087       .  S
C390        C391   1.362       .  D
C391        C392   1.536       .  S
C392        C396   1.535       .  S
C392        C558   1.541       .  S
C392        H398   1.111       .  S
C393        C553   1.539   1_554  S
C393        H399   1.084       .  S
C393        C394   1.363       .  D
C394        C556   1.537   1_554  S
C395        H400   1.085       .  S
C395        C396   1.365       .  D
N401        N402   1.320       .  A
N401        C405   1.348       .  A
N401       Cu409   2.071       .  S
N402        C403   1.340       .  A
N402       Cu408   2.053       .  S
C403        C404   1.378       .  A
C403        H406   1.083       .  S
C404        C405   1.383       .  A
C404        C463   1.464       .  S
C405        H407   1.082       .  S
Cu408       N411   2.053       .  S
Cu409       N419   2.073       .  S
Cu410       N412   2.083       .  S
Cu410       N418   2.085       .  S
N411        N412   1.321       .  A
N411        C415   1.338       .  A
N412        C413   1.351       .  A
C413        C414   1.386       .  A
C413        H416   1.082       .  S
C414        C415   1.377       .  A
C414        C468   1.469       .  S
C415        H417   1.083       .  S
N418        N419   1.326       .  A
N418        C422   1.346       .  A
N419        C420   1.344       .  A
C420        C421   1.377       .  A
C420        H423   1.082       .  S
C421        C422   1.381       .  A
C421        C430   1.465       .  S
C422        H424   1.082       .  S
C425        C426   1.536       .  S
C425        C431   1.529       .  S
C425        C593   1.545       .  S
C425        C477   1.528       .  S
C426        H433   1.085       .  S
C426        C427   1.364       .  D
C427        C440   1.470       .  S
C427        C428   1.538       .  S
C428        C432   1.537       .  S
C428        C594   1.540       .  S
C428        H434   1.111       .  S
C429        C589   1.546   1_554  S
C429        H435   1.083       .  S
C429        C430   1.364       .  D
C430        C592   1.536   1_554  S
C431        H436   1.087       .  S
C431        C432   1.360       .  D
C432        C450   1.469       .  S
N437        N438   1.321       .  A
N437        C441   1.348       .  A
N437       Cu445   2.076       .  S
N438        C439   1.342       .  A
N438       Cu444   2.063       .  S
C439        C440   1.381       .  A
C439        H442   1.083       .  S
C440        C441   1.384       .  A
C441        H443   1.082       .  S
Cu445       N455   2.079       .  S
Cu446       N448   2.077       .  S
Cu446       N454   2.078       .  S
N447        N448   1.322       .  A
N447        C451   1.340       .  A
N448        C449   1.350       .  A
C449        C450   1.384       .  A
C449        H452   1.082       .  S
C450        C451   1.379       .  A
C451        H453   1.082       .  S
N454        C458   1.346       .  A
N455        C456   1.344       .  A
C456        C457   1.379       .  A
C456        H459   1.082       .  S
C457        C466   1.464       .  S
C458        H460   1.082       .  S
C461        C462   1.529       .  S
C461        C465   1.539       .  S
C461        C484   1.527       .  S
C462        H469   1.087       .  S
C462        C463   1.362       .  D
C463        C464   1.535       .  S
C464        C466   1.538       .  S
C464        H470   1.111       .  S
C465        C466   1.364       .  D
C467        H472   1.086       .  S
C467        C468   1.364       .  D
C473        C474   1.409   1_455  A
C473        C478   1.397       .  A
C473        H480   1.079   1_455  S
C474        C639   1.418   1_655  A
C475        C638   1.418   1_454  A
C475        C476   1.399       .  A
C475       Br482   1.925   1_455  S
C476        C641   1.408   1_554  A
C476        H481   1.079       .  S
C477        C640   1.408       .  A
C477        C478   1.418       .  A
C478       Br479   1.927       .  S
C483        C488   1.394       .  A
C483        H490   1.082       .  S
C484        C485   1.418       .  A
C485        C486   1.400       .  A
C485       Br492   1.925       .  S
C486        C487   1.410       .  A
C486        H491   1.078       .  S
C488       Br489   1.925       .  S
N493        N494   1.321       .  A
N493        C497   1.348       .  A
N493       Cu501   2.075       .  S
N494        C495   1.340       .  A
C495        C496   1.378       .  A
C495        H498   1.082       .  S
C496        C497   1.383       .  A
C496        C555   1.465       .  S
C497        H499   1.082       .  S
Cu500       N503   2.066       .  S
Cu501       N511   2.075       .  S
Cu502       N504   2.070       .  S
Cu502       N510   2.070       .  S
N503        N504   1.321       .  A
N503        C507   1.341       .  A
N504        C505   1.348       .  A
C505        C506   1.382       .  A
C505        H508   1.082       .  S
C506        C507   1.380       .  A
C506        C560   1.468       .  S
C507        H509   1.082       .  S
N510        C514   1.345       .  A
N511        C512   1.345       .  A
C512        C513   1.379   1_565  A
C512        H515   1.082       .  S
C514        H516   1.082       .  S
C517        C523   1.531       .  S
C517        C521   1.543       .  S
C517        C651   1.530       .  S
C518        H525   1.086       .  S
C518        C519   1.361       .  D
C519        C532   1.470       .  S
C520        C524   1.536       .  S
C520        C522   1.542       .  S
C520        H526   1.111       .  S
C521        H527   1.084       .  S
C521        C522   1.364       .  D
C523        H528   1.087       .  S
C523        C524   1.362       .  D
C524        C542   1.473       .  S
N529        N530   1.320       .  A
N529        C533   1.348       .  A
N529       Cu537   2.074       .  S
N530        C531   1.341       .  A
N530       Cu536   2.061       .  S
C531        C532   1.380       .  A
C531        H534   1.083       .  S
C532        C533   1.384       .  A
C533        H535   1.082       .  S
Cu536       N539   2.061       .  S
Cu537       N547   2.075       .  S
Cu538       N540   2.089       .  S
Cu538       N546   2.091       .  S
N539        N540   1.322       .  A
N539        C543   1.340       .  A
N540        C541   1.351       .  A
C541        C542   1.386       .  A
C541        H544   1.082       .  S
C542        C543   1.378       .  A
C543        H545   1.082       .  S
N546        N547   1.325       .  A
N546        C550   1.347       .  A
N547        C548   1.344       .  A
C548        C549   1.378       .  A
C548        H551   1.082       .  S
C549        C550   1.383       .  A
C549        C558   1.468       .  S
C550        H552   1.082       .  S
C553        C554   1.530       .  S
C553        C559   1.541       .  S
C553        C638   1.526       .  S
C554        H561   1.087       .  S
C554        C555   1.362       .  D
C555        C556   1.535       .  S
C556        C560   1.536       .  S
C556        H562   1.111       .  S
C557        H563   1.086       .  S
C557        C558   1.363       .  D
C559        H564   1.087       .  S
C559        C560   1.362       .  D
N565        N566   1.321       .  A
N565        C569   1.349       .  A
N565       Cu573   2.081       .  S
N566        C567   1.341       .  A
N566       Cu572   2.057       .  S
C567        C568   1.379       .  A
C567        H570   1.082       .  S
C568        C569   1.385       .  A
C568        C627   1.471       .  S
C569        H571   1.082       .  S
Cu572       N575   2.057       .  S
Cu573       N583   2.084       .  S
Cu574       N576   2.078       .  S
Cu574       N582   2.080       .  S
N575        N576   1.321       .  A
N575        C579   1.339       .  A
N576        C577   1.350       .  A
C577        C578   1.384       .  A
C577        H580   1.082       .  S
C578        C579   1.378       .  A
C578        C632   1.468       .  S
C579        H581   1.083       .  S
N582        N583   1.325       .  A
N582        C586   1.347       .  A
N583        C584   1.345       .  A
C584        C585   1.380       .  A
C584        H587   1.081       .  S
C585        C586   1.380       .  A
C585        C594   1.468       .  S
C586        H588   1.082       .  S
C589        C590   1.537       .  S
C589        C595   1.532       .  S
C589        C641   1.525       .  S
C590        H597   1.086       .  S
C590        C591   1.361       .  D
C591        C604   1.471       .  S
C591        C592   1.536       .  S
C592        C596   1.534       .  S
C592        H598   1.111       .  S
C593        H599   1.084       .  S
C593        C594   1.364       .  D
C595        H600   1.087       .  S
C595        C596   1.362       .  D
C596        C614   1.464       .  S
N601        N602   1.321       .  A
N601        C605   1.347       .  A
N601       Cu609   2.075       .  S
N602        C603   1.343       .  A
N602       Cu608   2.067       .  S
C603        C604   1.382       .  A
C603        H606   1.082       .  S
C604        C605   1.383       .  A
C605        H607   1.082       .  S
Cu609       N619   2.077       .  S
Cu610       N612   2.071       .  S
Cu610       N618   2.072       .  S
N611        N612   1.321       .  A
N611        C615   1.340       .  A
N612        C613   1.348       .  A
C613        C614   1.382       .  A
C613        H616   1.082       .  S
C614        C615   1.379       .  A
C615        H617   1.082       .  S
N618        C622   1.345       .  A
N619        C620   1.345       .  A
C620        C621   1.379       .  A
C620        H623   1.082       .  S
C621        C630   1.465       .  S
C622        H624   1.082       .  S
C625        C626   1.531       .  S
C625        C629   1.538       .  S
C625        C648   1.530       .  S
C626        H633   1.087       .  S
C626        C627   1.363       .  D
C627        C628   1.536       .  S
C628        C630   1.540       .  S
C628        H634   1.111       .  S
C629        C630   1.363       .  D
C631        H636   1.087       .  S
C631        C632   1.361       .  D
C637        C638   1.407   1_455  A
C637        C642   1.392       .  A
C637        H644   1.082   1_455  S
C639        C640   1.397       .  A
C639       Br646   1.925   1_455  S
C640        H645   1.080       .  S
C641        C642   1.415       .  A
C642       Br643   1.926       .  S
C647        C652   1.390       .  A
C647        H654   1.083       .  S
C648        C649   1.419       .  A
C649        C650   1.400       .  A
C649       Br656   1.926       .  S
C650        C651   1.410       .  A
C650        H655   1.080       .  S
C652       Br653   1.927       .  S
