geometry optimzed in LAMMPS
_audit_creation_date              2020-11-30 
_audit_creation_method            'lammps2cif' 
_symmetry_space_group_name_H-M    'P1' 
_symmetry_Int_Tables_number       1 
_symmetry_cell_setting            triclinic 
loop_ 
_symmetry_equiv_pos_as_xyz 
  x,y,z 
_cell_length_a                    41.32643158 
_cell_length_b                    41.32520982218417 
_cell_length_c                    42.022265247584585 
_cell_angle_alpha                 89.99159653799721 
_cell_angle_beta                  90.0154292545396 
_cell_angle_gamma                 120.0552824778826 
loop_ 
_atom_site_label 
_atom_site_type_symbol 
_atom_site_fract_x 
_atom_site_fract_y 
_atom_site_fract_z 
_atom_site_charge 
O1          O  0.29003476  0.09387626  0.34963710    -0.81800
O2          O  0.36469810  0.13885979  0.33477867    -0.78900
C3          C  0.39589897  0.16825568  0.33142623     1.01600
O4          O  0.40560721  0.19588634  0.34975767    -0.78300
O5          O  0.36069654  0.22559850  0.33486240    -0.81600
C6          C  0.33130884  0.22736622  0.33146198     1.06100
O7          O  0.30366000  0.20940273  0.34976707    -0.74300
O8          O  0.27396908  0.13479574  0.33473314    -0.74500
C9          C  0.27216335  0.10362649  0.33130147     1.06100
O10         O  0.30848557  0.10683623  0.41626049    -0.81800
O11         O  0.38391004  0.14653317  0.40138148    -0.78900
C12         C  0.39919535  0.17474356  0.41952695     1.01600
O13         O  0.39254141  0.20121592  0.41636947    -0.78900
O14         O  0.35289097  0.23695876  0.40149102    -0.81500
C15         C  0.32462727  0.22395227  0.41957588     1.06100
O16         O  0.29814911  0.19080009  0.41633965    -0.74400
O17         O  0.26239165  0.11540243  0.40131378    -0.74500
C18         C  0.27533965  0.10013504  0.41943343     1.06100
Cr19       Cr  0.33651717  0.12504336  0.37555407     1.93700
Cr20       Cr  0.37441684  0.21113451  0.37565035     1.93200
Cr21       Cr  0.28832424  0.16286539  0.37557560     1.39100
O22         O  0.33308873  0.16635020  0.37571118    -1.19600
C23         C  0.30303551  0.32903778  0.01978096     0.06600
C24         C  0.33746952  0.36252687  0.01918516    -0.09500
C25         C  0.36679992  0.36590953  0.00009438     0.04100
C26         C  0.36172862  0.33557569  0.48145233    -0.08000
C27         C  0.32744527  0.30183335  0.48169256     0.06600
C28         C  0.29803112  0.29858948  0.00099326    -0.07500
H29         H  0.34145087  0.38601367  0.03361022     0.12200
H30         H  0.38443887  0.33829975  0.46662117     0.09800
H31         H  0.27148552  0.27265336  0.00131867     0.09600
C32         C  0.03405595  0.50017977  0.49921820     0.06600
C33         C  0.03344488  0.03383014  0.49914100    -0.09500
C34         C  0.49924444  0.03335430  0.49911389     0.04100
C35         C  0.46556875  0.49905261  0.49917434    -0.08000
C36         C  0.46600540  0.46530712  0.49924322     0.06600
C37         C  0.50028840  0.46596143  0.49926737    -0.07500
H38         H  0.05949425  0.06030331  0.49913591     0.12200
H39         H  0.43911190  0.49861756  0.49919448     0.09800
H40         H  0.50069090  0.43992289  0.49935633     0.09600
C41         C  0.47431144  0.17180366  0.48152372     0.06600
C42         C  0.50054499  0.20124369  0.00082051    -0.09500
C43         C  0.02603624  0.19627503  0.01956041     0.04100
C44         C  0.02509671  0.16187157  0.01891609    -0.08000
C45         C  0.49909098  0.13252633  0.99983057     0.06600
C46         C  0.47376835  0.13754412  0.48123057    -0.07500
H47         H  0.50115158  0.22776661  0.00118798     0.12200
H48         H  0.04463798  0.15791863  0.03331322     0.09800
H49         H  0.45373943  0.11483003  0.46639766     0.09600
C50         C  0.17016899  0.47335048  0.01961861     0.06600
C51         C  0.20060935  0.49882317  0.50078165    -0.09500
C52         C  0.19738282  0.02502347  0.48152845     0.04100
C53         C  0.16368029  0.02558331  0.48132770    -0.08000
C54         C  0.13336553  0.50031398  0.50003609     0.06600
C55         C  0.13671189  0.47430883  0.01907708    -0.07500
H56         H  0.22651921  0.49820454  0.50105133     0.12200
H57         H  0.16098049  0.04559566  0.46650894     0.09800
H58         H  0.11323804  0.45478912  0.03352441     0.09600
O59         O  0.10692029  0.30957479  0.16660223    -0.81800
O60         O  0.14821235  0.38499290  0.15162091    -0.78900
C61         C  0.17654578  0.40000535  0.16961908     1.01600
O62         O  0.20250860  0.39256935  0.16657880    -0.78900
O63         O  0.23661621  0.35125544  0.15183654    -0.81600
C64         C  0.22320192  0.32293714  0.16985592     1.06100
O65         O  0.18977990  0.29695223  0.16674241    -0.74300
O66         O  0.11436404  0.26275927  0.15175592    -0.74500
C67         C  0.09944462  0.27616117  0.16973223     1.06100
O68         O  0.09368409  0.29130088  0.10004320    -0.81800
O69         O  0.14017188  0.36589751  0.08514860    -0.78900
C70         C  0.16997826  0.39678254  0.08186346     1.01600
O71         O  0.19762683  0.40568652  0.09997737    -0.78900
O72         O  0.22574436  0.35920813  0.08527841    -0.81500
C73         C  0.22679289  0.32940309  0.08205629     1.06100
O74         O  0.20802276  0.30179961  0.10020792    -0.74400
O75         O  0.13344548  0.27365671  0.08526664    -0.74500
C76         C  0.10258075  0.27256381  0.08194402     1.06100
Cr77       Cr  0.12575847  0.33757075  0.12589143     1.93700
Cr78       Cr  0.21174375  0.37366708  0.12594812     1.93200
Cr79       Cr  0.16177491  0.28767520  0.12601866     1.39100
O80         O  0.16642836  0.33297497  0.12606314    -1.19600
C81         C  0.33100111  0.30246439  0.26779712     0.06600
C82         C  0.29996133  0.29690290  0.24959990    -0.09500
C83         C  0.30238208  0.32591156  0.23026724     0.04100
C84         C  0.33595029  0.36035260  0.22927856    -0.08000
C85         C  0.36690806  0.36597099  0.24731963     0.06600
C86         C  0.36432411  0.33700853  0.26647453    -0.07500
H87         H  0.27413114  0.27028787  0.25055076     0.12200
H88         H  0.33798943  0.38278102  0.21444563     0.09800
H89         H  0.38823155  0.34143145  0.28051871     0.09600
C90         C  0.00006025  0.03391609  0.24599751     0.06600
C91         C  0.46602818  0.49999977  0.24602294    -0.09500
C92         C  0.46568732  0.46586467  0.24591833     0.04100
C93         C  0.49960299  0.46575454  0.24583423    -0.08000
C94         C  0.03374387  0.99958196  0.24582013     0.06600
C95         C  0.03388038  0.03362374  0.24591632    -0.07500
H96         H  0.43986472  0.50015497  0.24613404     0.12200
H97         H  0.49941569  0.43941890  0.24580322     0.09800
H98         H  0.06022462  0.05980596  0.24594810     0.09600
C99         C  0.47126799  0.16845380  0.26782286     0.06600
C100        C  0.99668663  0.19944266  0.24953335    -0.09500
C101        C  0.02324439  0.19701322  0.23019266     0.04100
C102        C  0.02414387  0.16348683  0.22927603    -0.08000
C103        C  0.99886124  0.13257536  0.24740963     0.06600
C104        C  0.47251315  0.13516562  0.26658278    -0.07500
H105        H  0.99588563  0.22524465  0.25042372     0.12200
H106        H  0.04451394  0.16144643  0.21443123     0.09800
H107        H  0.45306816  0.11129601  0.28069730     0.09600
C108        C  0.17364233  0.47637671  0.22984947     0.06600
C109        C  0.20266024  0.50294853  0.24920942    -0.09500
C110        C  0.19712313  0.02840913  0.26744415     0.04100
C111        C  0.16259795  0.02717294  0.26614858    -0.08000
C112        C  0.13362611  0.50079066  0.24698140     0.06600
C113        C  0.13921903  0.47548897  0.22887953    -0.07500
H114        H  0.22925495  0.50373471  0.25015426     0.12200
H115        H  0.15819527  0.04662111  0.28024676     0.09800
H116        H  0.11677787  0.45510133  0.21403398     0.09600
C117        C  0.09810000  0.49970431  0.24609527    -0.09800
C118        C  0.06866395  0.99941678  0.24582272    -0.11300
C119        C  0.99993566  0.09813202  0.24651638    -0.09800
C120        C  0.00024669  0.06901145  0.24616362    -0.11300
C121        C  0.40139436  0.40149953  0.24636959    -0.09800
C122        C  0.43056053  0.43093283  0.24602496    -0.11300
C123        C  0.07238802  0.25193065  0.19311788    -0.09800
C124        C  0.04961147  0.22838318  0.21089130    -0.11300
C125        C  0.17935945  0.42712536  0.19292237    -0.09800
C126        C  0.17859994  0.44995385  0.21061844    -0.11300
C127        C  0.24743178  0.32015031  0.19326249    -0.09800
C128        C  0.27097893  0.32091442  0.21102383    -0.11300
C129        C  0.17267104  0.44624516  0.03990788    -0.09800
C130        C  0.17204478  0.42326852  0.05825914    -0.11300
C131        C  0.05314299  0.22585392  0.03990159    -0.09800
C132        C  0.07611515  0.24816042  0.05830126    -0.11300
C133        C  0.06931219  0.50072011  0.49934739    -0.09800
C134        C  0.09862846  0.50081181  0.49956908    -0.11300
C135        C  0.49858506  0.09728450  0.49934629    -0.09800
C136        C  0.49871239  0.06807617  0.49915474    -0.11300
C137        C  0.27345769  0.32655332  0.04009581    -0.09800
C138        C  0.25117239  0.32726470  0.05846285    -0.11300
C139        C  0.43126336  0.43002413  0.49938837    -0.09800
C140        C  0.40203529  0.40066573  0.49962375    -0.11300
C141        C  0.25101687  0.07359784  0.44310884    -0.09800
C142        C  0.22798183  0.05117511  0.46142710    -0.11300
C143        C  0.24801825  0.07786861  0.30716913    -0.09800
C144        C  0.22610344  0.05537583  0.28827964    -0.11300
C145        C  0.44813210  0.17626378  0.46148693    -0.09800
C146        C  0.42571052  0.17691935  0.44320420    -0.11300
C147        C  0.42173835  0.16988304  0.30739791    -0.09800
C148        C  0.44427349  0.17044789  0.28859306    -0.11300
C149        C  0.32904711  0.27348178  0.28857248    -0.09800
C150        C  0.32968283  0.25155751  0.30739933    -0.11300
C151        C  0.32238987  0.24822199  0.44327834    -0.09800
C152        C  0.32298314  0.27122945  0.46160337    -0.11300
O153        O  0.29004304  0.09387419  0.84969248    -0.81800
O154        O  0.36471384  0.13886960  0.83483701    -0.78900
C155        C  0.39591368  0.16826842  0.83148634     1.01600
O156        O  0.40560944  0.19590417  0.84981026    -0.78300
O157        O  0.36068287  0.22560746  0.83491573    -0.81600
C158        C  0.33129290  0.22737309  0.83152009     1.06100
O159        O  0.30364192  0.20939545  0.84982118    -0.74300
O160        O  0.27395978  0.13478126  0.83478798    -0.74500
C161        C  0.27215740  0.10361239  0.83136049     1.06100
O162        O  0.30850145  0.10685172  0.91631824    -0.81800
O163        O  0.38391740  0.14655452  0.90143921    -0.78900
C164        C  0.39919055  0.17476384  0.91958593     1.01600
O165        O  0.39253150  0.20123138  0.91642329    -0.78900
O166        O  0.35287131  0.23695449  0.90154325    -0.81500
C167        C  0.32461234  0.22393685  0.91963344     1.06100
O168        O  0.29813844  0.19078415  0.91639458    -0.74400
O169        O  0.26239556  0.11539529  0.90136713    -0.74500
C170        C  0.27535442  0.10014406  0.91949262     1.06100
Cr171      Cr  0.33652685  0.12505321  0.87560990     1.93700
Cr172      Cr  0.37440772  0.21114307  0.87570198     1.93200
Cr173      Cr  0.28831661  0.16285628  0.87562854     1.39100
O174        O  0.33308657  0.16635333  0.87576085    -1.19600
C175        C  0.30300277  0.32899751  0.51976499     0.06600
C176        C  0.33744308  0.36248145  0.51920873    -0.09500
C177        C  0.36678861  0.36588657  0.50012610     0.04100
C178        C  0.36173157  0.33557329  0.98145454    -0.08000
C179        C  0.32745339  0.30182837  0.98173459     0.06600
C180        C  0.29800764  0.29857448  0.50094378    -0.07500
H181        H  0.34141826  0.38594781  0.53366013     0.12200
H182        H  0.38442967  0.33828099  0.96661557     0.09800
H183        H  0.27145882  0.27264106  0.50124045     0.09600
C184        C  0.03405725  0.50017866  0.99909947     0.06600
C185        C  0.03345488  0.03383411  0.99901335    -0.09500
C186        C  0.49925286  0.03336473  0.99898397     0.04100
C187        C  0.46558361  0.49907258  0.99903446    -0.08000
C188        C  0.46601181  0.46532354  0.99910652     0.06600
C189        C  0.50028926  0.46596793  0.99913612    -0.07500
H190        H  0.05950933  0.06030245  0.99902056     0.12200
H191        H  0.43913001  0.49864449  0.99905661     0.09800
H192        H  0.50068459  0.43992564  0.99923350     0.09600
C193        C  0.47431017  0.17181833  0.98156078     0.06600
C194        C  0.50053352  0.20123980  0.50078367    -0.09500
C195        C  0.02600572  0.19627588  0.51956622     0.04100
C196        C  0.02505585  0.16186644  0.51895782    -0.08000
C197        C  0.49907003  0.13251543  0.49986308     0.06600
C198        C  0.47376981  0.13756154  0.98123420    -0.07500
H199        H  0.50114261  0.22776423  0.50112614     0.12200
H200        H  0.04457975  0.15791694  0.53338339     0.09800
H201        H  0.45373032  0.11485578  0.96640008     0.09600
C202        C  0.17020131  0.47337835  0.51962249     0.06600
C203        C  0.20059833  0.49881217  0.00080727    -0.09500
C204        C  0.19739214  0.02503590  0.98157165     0.04100
C205        C  0.16368843  0.02559087  0.98134259    -0.08000
C206        C  0.13335383  0.50029811  0.00001220     0.06600
C207        C  0.13674593  0.47434099  0.51910561    -0.07500
H208        H  0.22650830  0.49819439  0.00109423     0.12200
H209        H  0.16100370  0.04561247  0.96652403     0.09800
H210        H  0.11328937  0.45483603  0.53357664     0.09600
O211        O  0.10691098  0.30959323  0.66660600    -0.81800
O212        O  0.14824073  0.38501242  0.65163593    -0.78900
C213        C  0.17657635  0.40001424  0.66963237     1.01600
O214        O  0.20253214  0.39256845  0.66658448    -0.78900
O215        O  0.23660685  0.35122269  0.65183974    -0.81600
C216        C  0.22318295  0.32290547  0.66986070     1.06100
O217        O  0.18975712  0.29692855  0.66674475    -0.74300
O218        O  0.11433920  0.26276616  0.65176713    -0.74500
C219        C  0.09942613  0.27617694  0.66974086     1.06100
O220        O  0.09367425  0.29133521  0.60004153    -0.81800
O221        O  0.14019519  0.36593352  0.58515836    -0.78900
C222        C  0.17001219  0.39680952  0.58187208     1.01600
O223        O  0.19766024  0.40569438  0.59998176    -0.78900
O224        O  0.22573978  0.35918072  0.58527999    -0.81500
C225        C  0.22676558  0.32936379  0.58205190     1.06100
O226        O  0.20798373  0.30176206  0.60020277    -0.74400
O227        O  0.13340584  0.27364829  0.58527439    -0.74500
C228        C  0.10255158  0.27257752  0.58194839     1.06100
Cr229      Cr  0.12576719  0.33759540  0.62589760     1.93700
Cr230      Cr  0.21175145  0.37365302  0.62595159     1.93200
Cr231      Cr  0.16174600  0.28766267  0.62602276     1.39100
O232        O  0.16642374  0.33297409  0.62606721    -1.19600
C233        C  0.33098837  0.30246883  0.76783691     0.06600
C234        C  0.29993765  0.29690268  0.74965191    -0.09500
C235        C  0.30236399  0.32588685  0.73028059     0.04100
C236        C  0.33594903  0.36031034  0.72924374    -0.08000
C237        C  0.36691843  0.36593664  0.74727253     0.06600
C238        C  0.36432801  0.33699690  0.76646531    -0.07500
H239        H  0.27409618  0.27030068  0.75063827     0.12200
H240        H  0.33799268  0.38271939  0.71438135     0.09800
H241        H  0.38824412  0.34142406  0.78049826     0.09600
C242        C  0.00004105  0.03390995  0.74583256     0.06600
C243        C  0.46601594  0.49995816  0.74585662    -0.09500
C244        C  0.46570309  0.46583584  0.74575248     0.04100
C245        C  0.49963491  0.46575593  0.74566720    -0.08000
C246        C  0.03376927  0.99961710  0.74564971     0.06600
C247        C  0.03387609  0.03364496  0.74574612    -0.07500
H248        H  0.43984135  0.50009079  0.74597595     0.12200
H249        H  0.49947004  0.43943157  0.74564391     0.09800
H250        H  0.06020941  0.05983822  0.74578637     0.09600
C251        C  0.47127556  0.16846098  0.76786362     0.06600
C252        C  0.99670233  0.19945926  0.74958790    -0.09500
C253        C  0.02323213  0.19702795  0.73020864     0.04100
C254        C  0.02410512  0.16348887  0.72924672    -0.08000
C255        C  0.99882578  0.13256622  0.74737183     0.06600
C256        C  0.47249645  0.13516015  0.76657962    -0.07500
H257        H  0.99591949  0.22526944  0.75051108     0.12200
H258        H  0.04445270  0.16144690  0.71437195     0.09800
H259        H  0.45305228  0.11128276  0.78068662     0.09600
C260        C  0.17366703  0.47638310  0.72986423     0.06600
C261        C  0.20266244  0.50293602  0.74925407    -0.09500
C262        C  0.19712235  0.02839969  0.76748289     0.04100
C263        C  0.16261201  0.02719396  0.76613737    -0.08000
C264        C  0.13365285  0.50082708  0.74693337     0.06600
C265        C  0.13925646  0.47551985  0.72884933    -0.07500
H266        H  0.22924735  0.50370454  0.75023264     0.12200
H267        H  0.15820390  0.04664734  0.78022224     0.09800
H268        H  0.11683295  0.45514687  0.71398122     0.09600
C269        C  0.09813345  0.49975767  0.74600053    -0.09800
C270        C  0.06870617  0.99948006  0.74568321    -0.11300
C271        C  0.99988095  0.09811154  0.74642864    -0.09800
C272        C  0.00019933  0.06899372  0.74603351    -0.11300
C273        C  0.40142042  0.40145300  0.74627178    -0.09800
C274        C  0.43058724  0.43088777  0.74588821    -0.11300
C275        C  0.07236919  0.25195343  0.69313234    -0.09800
C276        C  0.04959520  0.22840643  0.71090950    -0.11300
C277        C  0.17939818  0.42713233  0.69294398    -0.09800
C278        C  0.17863591  0.44995914  0.71064205    -0.11300
C279        C  0.24740600  0.32011365  0.69327460    -0.09800
C280        C  0.27095276  0.32088089  0.71104038    -0.11300
C281        C  0.17271971  0.44628307  0.53991601    -0.09800
C282        C  0.17209247  0.42330610  0.55826936    -0.11300
C283        C  0.05310393  0.22586599  0.53990742    -0.09800
C284        C  0.07607600  0.24817583  0.55830731    -0.11300
C285        C  0.06930607  0.50070804  0.99925916    -0.09800
C286        C  0.09861781  0.50079347  0.99951286    -0.11300
C287        C  0.49860964  0.09729977  0.99927424    -0.09800
C288        C  0.49873226  0.06809047  0.99905037    -0.11300
C289        C  0.27341353  0.32649499  0.54007875    -0.09800
C290        C  0.25113237  0.32720919  0.55845118    -0.11300
C291        C  0.43126717  0.43004688  0.99927578    -0.09800
C292        C  0.40203974  0.40069070  0.99954629    -0.11300
C293        C  0.25104231  0.07361566  0.94317466    -0.09800
C294        C  0.22800595  0.05119421  0.96149054    -0.11300
C295        C  0.24800230  0.07784314  0.80723520    -0.09800
C296        C  0.22608712  0.05535243  0.78834224    -0.11300
C297        C  0.44812332  0.17628960  0.96154746    -0.09800
C298        C  0.42570036  0.17694578  0.94326872    -0.11300
C299        C  0.42176392  0.16989411  0.80746630    -0.09800
C300        C  0.44429618  0.17045441  0.78865835    -0.11300
C301        C  0.32903352  0.27350106  0.78863631    -0.09800
C302        C  0.32966618  0.25157558  0.80746579    -0.11300
C303        C  0.32237466  0.24819546  0.94334364    -0.09800
C304        C  0.32297564  0.27120633  0.96166658    -0.11300
O305        O  0.29003966  0.59386763  0.34965773    -0.81800
O306        O  0.36470618  0.63885822  0.33480390    -0.78900
C307        C  0.39590493  0.66825754  0.33145190     1.01600
O308        O  0.40560599  0.69588885  0.34978089    -0.78300
O309        O  0.36068633  0.72559092  0.33488258    -0.81600
C310        C  0.33129577  0.72735328  0.33148057     1.06100
O311        O  0.30364748  0.70938796  0.34978560    -0.74300
O312        O  0.27396311  0.63477922  0.33475343    -0.74500
C313        C  0.27216283  0.60361196  0.33132259     1.06100
O314        O  0.30848381  0.60683066  0.41628277    -0.81800
O315        O  0.38390924  0.64653429  0.40140836    -0.78900
C316        C  0.39919225  0.67474631  0.41955206     1.01600
O317        O  0.39253597  0.70121675  0.41639168    -0.78900
O318        O  0.35287880  0.73695052  0.40151139    -0.81500
C319        C  0.32461679  0.72394075  0.41959814     1.06100
O320        O  0.29813901  0.69078853  0.41635959    -0.74400
O321        O  0.26238778  0.61539190  0.40133326    -0.74500
C322        C  0.27533732  0.60012826  0.41945480     1.06100
Cr323      Cr  0.33651897  0.62503961  0.37557747     1.93700
Cr324      Cr  0.37440928  0.71113063  0.37567149     1.93200
Cr325      Cr  0.28831703  0.66285294  0.37559511     1.39100
O326        O  0.33308441  0.66634331  0.37573188    -1.19600
C327        C  0.30304162  0.82903322  0.01979704     0.06600
C328        C  0.33747776  0.86251993  0.01920009    -0.09500
C329        C  0.36680735  0.86589732  0.00011119     0.04100
C330        C  0.36174511  0.83556065  0.48148493    -0.08000
C331        C  0.32745840  0.80182141  0.48172884     0.06600
C332        C  0.29803416  0.79858170  0.00101210    -0.07500
H333        H  0.34146103  0.88600945  0.03362219     0.12200
H334        H  0.38445118  0.83827967  0.46665086     0.09800
H335        H  0.27148647  0.77264776  0.00133765     0.09600
C336        C  0.03406842  0.00018224  0.49922006     0.06600
C337        C  0.03343975  0.53383143  0.49914506    -0.09500
C338        C  0.49923508  0.53335790  0.49912412     0.04100
C339        C  0.46558118  0.99904566  0.49916941    -0.08000
C340        C  0.46602399  0.96530308  0.49924760     0.06600
C341        C  0.50031013  0.96596402  0.49927463    -0.07500
H342        H  0.05949196  0.56030186  0.49914388     0.12200
H343        H  0.43912190  0.99860571  0.49918758     0.09800
H344        H  0.50071760  0.93992793  0.49937061     0.09600
C345        C  0.47431144  0.67181205  0.48154733     0.06600
C346        C  0.50054162  0.70124823  0.00082696    -0.09500
C347        C  0.02603930  0.69628383  0.01957112     0.04100
C348        C  0.02509935  0.66188021  0.01893171    -0.08000
C349        C  0.49909030  0.63253227  0.99984353     0.06600
C350        C  0.47376562  0.63755126  0.48125457    -0.07500
H351        H  0.50114757  0.72777092  0.00119173     0.12200
H352        H  0.04464173  0.65792970  0.03332941     0.09800
H353        H  0.45373290  0.61483627  0.46642449     0.09600
C354        C  0.17018199  0.97336001  0.01961423     0.06600
C355        C  0.20061896  0.99882010  0.50076053    -0.09500
C356        C  0.19737363  0.52502405  0.48154690     0.04100
C357        C  0.16366882  0.52557954  0.48133899    -0.08000
C358        C  0.13337983  0.00032046  0.50002851     0.06600
C359        C  0.13672492  0.97431856  0.01907447    -0.07500
H360        H  0.22652712  0.99819839  0.50102539     0.12200
H361        H  0.16096951  0.54559031  0.46651759     0.09800
H362        H  0.11325210  0.95479936  0.03352298     0.09600
O363        O  0.10692261  0.80958827  0.16660656    -0.81800
O364        O  0.14821553  0.88500555  0.15162045    -0.78900
C365        C  0.17654684  0.90001767  0.16962045     1.01600
O366        O  0.20250981  0.89258133  0.16658375    -0.78900
O367        O  0.23661876  0.85126602  0.15184782    -0.81600
C368        C  0.22320340  0.82294553  0.16986499     1.06100
O369        O  0.18978129  0.79696169  0.16675002    -0.74300
O370        O  0.11436646  0.76277165  0.15176398    -0.74500
C371        C  0.09944864  0.77617532  0.16974042     1.06100
O372        O  0.09368873  0.79131241  0.10004792    -0.81800
O373        O  0.14017955  0.86590861  0.08515003    -0.78900
C374        C  0.16998701  0.89679310  0.08186461     1.01600
O375        O  0.19763433  0.90569704  0.09998031    -0.78900
O376        O  0.22575357  0.85921835  0.08528780    -0.81500
C377        C  0.22679954  0.82941187  0.08206604     1.06100
O378        O  0.20802573  0.80180807  0.10021634    -0.74400
O379        O  0.13344994  0.77366756  0.08527336    -0.74500
C380        C  0.10258583  0.77257541  0.08194951     1.06100
Cr381      Cr  0.12576302  0.83758274  0.12589416     1.93700
Cr382      Cr  0.21174869  0.87367791  0.12595532     1.93200
Cr383      Cr  0.16177769  0.78768576  0.12602602     1.39100
O384        O  0.16643266  0.83298619  0.12606890    -1.19600
C385        C  0.33098498  0.80244400  0.26780907     0.06600
C386        C  0.29994739  0.79688728  0.24961049    -0.09500
C387        C  0.30237458  0.82589779  0.23027592     0.04100
C388        C  0.33594658  0.86033491  0.22928671    -0.08000
C389        C  0.36690135  0.86594825  0.24732923     0.06600
C390        C  0.36431153  0.83698481  0.26648598    -0.07500
H391        H  0.27411426  0.77027512  0.25056198     0.12200
H392        H  0.33799073  0.88276462  0.21445275     0.09800
H393        H  0.38821689  0.84140438  0.28053120     0.09600
C394        C  0.00009150  0.53393505  0.24601392     0.06600
C395        C  0.46600869  0.99997351  0.24601137    -0.09500
C396        C  0.46567726  0.96584320  0.24591922     0.04100
C397        C  0.49959732  0.96574203  0.24583887    -0.08000
C398        C  0.03375982  0.49958530  0.24582387     0.06600
C399        C  0.03390643  0.53363219  0.24593087    -0.07500
H400        H  0.43984165  0.00012161  0.24611953     0.12200
H401        H  0.49941707  0.93940988  0.24581706     0.09800
H402        H  0.06025464  0.55981041  0.24597061     0.09600
C403        C  0.47129503  0.66847563  0.26785781     0.06600
C404        C  0.99671367  0.69946108  0.24956732    -0.09500
C405        C  0.02327339  0.69703593  0.23022502     0.04100
C406        C  0.02418207  0.66351398  0.22931281    -0.08000
C407        C  0.99890697  0.63260284  0.24745106     0.06600
C408        C  0.47255026  0.63519251  0.26662332    -0.07500
H409        H  0.99590371  0.72525843  0.25045298     0.12200
H410        H  0.04455146  0.66147562  0.21446538     0.09800
H411        H  0.45311040  0.61132371  0.28074108     0.09600
C412        C  0.17363525  0.97639212  0.22983885     0.06600
C413        C  0.20265517  0.00296845  0.24919350    -0.09500
C414        C  0.19712650  0.52838603  0.26746421     0.04100
C415        C  0.16260134  0.52714999  0.26616758    -0.08000
C416        C  0.13362001  0.00080812  0.24696794     0.06600
C417        C  0.13921102  0.97550253  0.22886993    -0.07500
H418        H  0.22925003  0.00375494  0.25013819     0.12200
H419        H  0.15819714  0.54659570  0.28026805     0.09800
H420        H  0.11676782  0.95511030  0.21402888     0.09600
C421        C  0.09809204  0.99971764  0.24608589    -0.09800
C422        C  0.06867491  0.49940974  0.24582861    -0.11300
C423        C  0.99998260  0.59815963  0.24655346    -0.09800
C424        C  0.00028847  0.56903617  0.24619252    -0.11300
C425        C  0.40138999  0.90147384  0.24637932    -0.09800
C426        C  0.43055515  0.93090754  0.24603221    -0.11300
C427        C  0.07239803  0.75194794  0.19313265    -0.09800
C428        C  0.04962970  0.72840353  0.21091398    -0.11300
C429        C  0.17935727  0.92713780  0.19292114    -0.09800
C430        C  0.17859319  0.94996667  0.21061304    -0.11300
C431        C  0.24743153  0.82015338  0.19327050    -0.09800
C432        C  0.27097451  0.82090854  0.21103194    -0.11300
C433        C  0.17268477  0.94625518  0.03990450    -0.09800
C434        C  0.17205647  0.92327868  0.05825763    -0.11300
C435        C  0.05314771  0.72586547  0.03990851    -0.09800
C436        C  0.07612094  0.74817258  0.05830675    -0.11300
C437        C  0.06932791  0.00072934  0.49934835    -0.09800
C438        C  0.09864456  0.00082183  0.49956723    -0.11300
C439        C  0.49858339  0.59729138  0.49936546    -0.09800
C440        C  0.49870861  0.56808225  0.49917120    -0.11300
C441        C  0.27346443  0.82655528  0.04010925    -0.09800
C442        C  0.25117967  0.82727129  0.05847426    -0.11300
C443        C  0.43128529  0.93001628  0.49940112    -0.09800
C444        C  0.40205935  0.90065545  0.49964464    -0.11300
C445        C  0.25101468  0.57359455  0.44313153    -0.09800
C446        C  0.22797567  0.55117505  0.46144866    -0.11300
C447        C  0.24801861  0.57784916  0.30719123    -0.09800
C448        C  0.22610573  0.55535291  0.28830187    -0.11300
C449        C  0.44813055  0.67627233  0.46151298    -0.09800
C450        C  0.42570788  0.67692614  0.44323055    -0.11300
C451        C  0.42175092  0.66988999  0.30742672    -0.09800
C452        C  0.44429356  0.67046297  0.28862518    -0.11300
C453        C  0.32902685  0.77346105  0.28858661    -0.09800
C454        C  0.32966510  0.75153997  0.30741570    -0.11300
C455        C  0.32238314  0.74820703  0.44330689    -0.09800
C456        C  0.32298535  0.77121505  0.46163672    -0.11300
O457        O  0.29004059  0.59386597  0.84969832    -0.81800
O458        O  0.36471395  0.63886250  0.83484691    -0.78900
C459        C  0.39591333  0.66826255  0.83149727     1.01600
O460        O  0.40560297  0.69590055  0.84981730    -0.78300
O461        O  0.36066936  0.72559934  0.83492508    -0.81600
C462        C  0.33127858  0.72736445  0.83153264     1.06100
O463        O  0.30362881  0.70938406  0.84983419    -0.74300
O464        O  0.27395003  0.63476921  0.83479747    -0.74500
C465        C  0.27215175  0.60360213  0.83136804     1.06100
O466        O  0.30849462  0.60684090  0.91632573    -0.81800
O467        O  0.38391050  0.64654725  0.90144990    -0.78900
C468        C  0.39918345  0.67475781  0.91959509     1.01600
O469        O  0.39252472  0.70122530  0.91643051    -0.78900
O470        O  0.35285977  0.73694320  0.90155401    -0.81500
C471        C  0.32460277  0.72392307  0.91964666     1.06100
O472        O  0.29812937  0.69077006  0.91640675    -0.74400
O473        O  0.26238755  0.61538214  0.90137489    -0.74500
C474        C  0.27534729  0.60013207  0.91950023     1.06100
Cr475      Cr  0.33652217  0.62504501  0.87561824     1.93700
Cr476      Cr  0.37439801  0.71113524  0.87571011     1.93200
Cr477      Cr  0.28830726  0.66284401  0.87563884     1.39100
O478        O  0.33307882  0.66634374  0.87576905    -1.19600
C479        C  0.30302762  0.82899736  0.51980112     0.06600
C480        C  0.33747110  0.86247798  0.51924123    -0.09500
C481        C  0.36681232  0.86587615  0.50015625     0.04100
C482        C  0.36173616  0.83555758  0.98147455    -0.08000
C483        C  0.32745542  0.80181487  0.98175507     0.06600
C484        C  0.29802553  0.79857016  0.50098226    -0.07500
H485        H  0.34145099  0.88594818  0.53368953     0.12200
H486        H  0.38443325  0.83826144  0.96663644     0.09800
H487        H  0.27147362  0.77263996  0.50128054     0.09600
C488        C  0.03406460  0.00017973  0.99909613     0.06600
C489        C  0.03345212  0.53383539  0.99902573    -0.09500
C490        C  0.49925434  0.53337238  0.99899198     0.04100
C491        C  0.46558390  0.99906278  0.99903150    -0.08000
C492        C  0.46601605  0.96531553  0.99911129     0.06600
C493        C  0.50029551  0.96596406  0.99914353    -0.07500
H494        H  0.05950844  0.56030219  0.99903783     0.12200
H495        H  0.43912894  0.99863170  0.99905193     0.09800
H496        H  0.50069407  0.93992346  0.99924684     0.09600
C497        C  0.47430458  0.67181914  0.98157176     0.06600
C498        C  0.50053866  0.70124932  0.50080331    -0.09500
C499        C  0.02601606  0.69628953  0.51956939     0.04100
C500        C  0.02506757  0.66188091  0.51896092    -0.08000
C501        C  0.49906998  0.63252268  0.49988313     0.06600
C502        C  0.47376520  0.63756282  0.98124861    -0.07500
H503        H  0.50114996  0.72777483  0.50114558     0.12200
H504        H  0.04459535  0.65793385  0.53338294     0.09800
H505        H  0.45372428  0.61485432  0.96641764     0.09600
C506        C  0.17021332  0.97337810  0.51960612     0.06600
C507        C  0.20060994  0.99882128  0.00080084    -0.09500
C508        C  0.19738210  0.52502699  0.98157767     0.04100
C509        C  0.16367851  0.52558225  0.98134638    -0.08000
C510        C  0.13336525  0.00030715  0.00000989     0.06600
C511        C  0.13676044  0.97434569  0.51909527    -0.07500
H512        H  0.22652000  0.99820371  0.00108623     0.12200
H513        H  0.16099515  0.54560434  0.96652744     0.09800
H514        H  0.11330588  0.95484342  0.53356944     0.09600
O515        O  0.10690794  0.80960002  0.66660982    -0.81800
O516        O  0.14823528  0.88502051  0.65163611    -0.78900
C517        C  0.17657062  0.90002596  0.66963236     1.01600
O518        O  0.20252816  0.89258262  0.66658715    -0.78900
O519        O  0.23660510  0.85123672  0.65185535    -0.81600
C520        C  0.22317989  0.82291866  0.66987567     1.06100
O521        O  0.18975503  0.79694054  0.66675679    -0.74300
O522        O  0.11433884  0.76277438  0.65177228    -0.74500
C523        C  0.09942490  0.77618407  0.66974623     1.06100
O524        O  0.09367865  0.79134197  0.60004475    -0.81800
O525        O  0.14019646  0.86594030  0.58515942    -0.78900
C526        C  0.17001525  0.89681447  0.58186951     1.01600
O527        O  0.19766275  0.90570122  0.59998060    -0.78900
O528        O  0.22574898  0.85919031  0.58529193    -0.81500
C529        C  0.22677804  0.82937458  0.58206912     1.06100
O530        O  0.20799125  0.80177280  0.60021845    -0.74400
O531        O  0.13341470  0.77365944  0.58528073    -0.74500
C532        C  0.10256027  0.77258769  0.58195184     1.06100
Cr533      Cr  0.12576679  0.83760276  0.62590020     1.93700
Cr534      Cr  0.21175250  0.87366401  0.62595882     1.93200
Cr535      Cr  0.16174911  0.78767332  0.62603200     1.39100
O536        O  0.16642519  0.83298410  0.62607350    -1.19600
C537        C  0.33097134  0.80246793  0.76785905     0.06600
C538        C  0.29992216  0.79690547  0.74967331    -0.09500
C539        C  0.30235245  0.82589152  0.73030192     0.04100
C540        C  0.33593968  0.86031273  0.72926565    -0.08000
C541        C  0.36690720  0.86593533  0.74729513     0.06600
C542        C  0.36431285  0.83699435  0.76648839    -0.07500
H543        H  0.27407928  0.77030465  0.75065854     0.12200
H544        H  0.33798679  0.88272282  0.71440260     0.09800
H545        H  0.38822803  0.84141874  0.78052145     0.09600
C546        C  0.00005858  0.53391198  0.74585271     0.06600
C547        C  0.46599525  0.99995251  0.74585009    -0.09500
C548        C  0.46569068  0.96583452  0.74575671     0.04100
C549        C  0.49962662  0.96576271  0.74567008    -0.08000
C550        C  0.03377167  0.49960349  0.74566370     0.06600
C551        C  0.03388851  0.53363654  0.74576898    -0.07500
H552        H  0.43981746  0.00007899  0.74597053     0.12200
H553        H  0.49946815  0.93944153  0.74565507     0.09800
H554        H  0.06022578  0.55982580  0.74581707     0.09600
C555        C  0.47129842  0.66846199  0.76789290     0.06600
C556        C  0.99671238  0.69945956  0.74960408    -0.09500
C557        C  0.02324628  0.69703289  0.73022620     0.04100
C558        C  0.02412795  0.66349778  0.72926967    -0.08000
C559        C  0.99885335  0.63257490  0.74739775     0.06600
C560        C  0.47252811  0.63516539  0.76661313    -0.07500
H561        H  0.99592187  0.72526586  0.75052284     0.12200
H562        H  0.04447750  0.66145840  0.71439537     0.09800
H563        H  0.45308609  0.61128734  0.78072067     0.09600
C564        C  0.17366400  0.97640132  0.72985652     0.06600
C565        C  0.20266003  0.00295134  0.74924715    -0.09500
C566        C  0.19712100  0.52838105  0.76749160     0.04100
C567        C  0.16260761  0.52716891  0.76614859    -0.08000
C568        C  0.13365650  0.00085423  0.74692136     0.06600
C569        C  0.13925657  0.97554383  0.72883898    -0.07500
H570        H  0.22924242  0.00371480  0.75022790     0.12200
H571        H  0.15819686  0.54662005  0.78023434     0.09800
H572        H  0.11683230  0.95517218  0.71397054     0.09600
C573        C  0.09813838  0.99978690  0.74598772    -0.09800
C574        C  0.06870354  0.49945586  0.74569711    -0.11300
C575        C  0.99991204  0.59812135  0.74645551    -0.09800
C576        C  0.00022680  0.56900131  0.74605894    -0.11300
C577        C  0.40141180  0.90144882  0.74629240    -0.09800
C578        C  0.43057855  0.93088325  0.74590309    -0.11300
C579        C  0.07237098  0.75195952  0.69314072    -0.09800
C580        C  0.04960259  0.72841132  0.71092150    -0.11300
C581        C  0.17939044  0.92714527  0.69294100    -0.09800
C582        C  0.17862920  0.94997396  0.71063685    -0.11300
C583        C  0.24740050  0.82012624  0.69329197    -0.09800
C584        C  0.27094402  0.82088983  0.71105977    -0.11300
C585        C  0.17273110  0.94628273  0.53990134    -0.09800
C586        C  0.17209941  0.92330713  0.55825966    -0.11300
C587        C  0.05311650  0.72588046  0.53990778    -0.09800
C588        C  0.07608863  0.74818865  0.55830806    -0.11300
C589        C  0.06931575  0.00071376  0.99925762    -0.09800
C590        C  0.09862865  0.00080147  0.99951166    -0.11300
C591        C  0.49861222  0.59730755  0.99928875    -0.09800
C592        C  0.49873645  0.56809924  0.99906353    -0.11300
C593        C  0.27343924  0.82650389  0.54011116    -0.09800
C594        C  0.25115377  0.82722104  0.55847681    -0.11300
C595        C  0.43127359  0.93003633  0.99928544    -0.09800
C596        C  0.40204768  0.90067838  0.99955942    -0.11300
C597        C  0.25103561  0.57360445  0.94318255    -0.09800
C598        C  0.22799753  0.55118438  0.96149791    -0.11300
C599        C  0.24799812  0.57783178  0.80724221    -0.09800
C600        C  0.22608495  0.55533790  0.78834971    -0.11300
C601        C  0.44811585  0.67628683  0.96155830    -0.09800
C602        C  0.42569260  0.67694112  0.94327890    -0.11300
C603        C  0.42177084  0.66988756  0.80748353    -0.09800
C604        C  0.44431046  0.67044979  0.78868208    -0.11300
C605        C  0.32901486  0.77349713  0.78865581    -0.09800
C606        C  0.32964927  0.75156950  0.80748200    -0.11300
C607        C  0.32236745  0.74817958  0.94336107    -0.09800
C608        C  0.32297270  0.77119082  0.96168646    -0.11300
O609        O  0.79003595  0.09387332  0.34964277    -0.81800
O610        O  0.86469831  0.13885895  0.33478250    -0.78900
C611        C  0.89589806  0.16825584  0.33142863     1.01600
O612        O  0.90560649  0.19588646  0.34976008    -0.78300
O613        O  0.86069429  0.22559694  0.33486570    -0.81600
C614        C  0.83130596  0.22736360  0.33146550     1.06100
O615        O  0.80365710  0.20939865  0.34977033    -0.74300
O616        O  0.77396799  0.13479079  0.33473790    -0.74500
C617        C  0.77216348  0.10362194  0.33130686     1.06100
O618        O  0.80848834  0.10683585  0.41626565    -0.81800
O619        O  0.88391243  0.14653426  0.40138504    -0.78900
C620        C  0.89919718  0.17474482  0.41953031     1.01600
O621        O  0.89254248  0.20121664  0.41637238    -0.78900
O622        O  0.85289005  0.23695715  0.40149426    -0.81500
C623        C  0.82462682  0.22395034  0.41957954     1.06100
O624        O  0.79814862  0.19079810  0.41634341    -0.74400
O625        O  0.76239299  0.11539995  0.40131918    -0.74500
C626        C  0.77534209  0.10013364  0.41943890     1.06100
Cr627      Cr  0.83651875  0.12504263  0.37555858     1.93700
Cr628      Cr  0.87441612  0.21113369  0.37565339     1.93200
Cr629      Cr  0.78832352  0.16286218  0.37557983     1.39100
O630        O  0.83308875  0.16634865  0.37571508    -1.19600
C631        C  0.80303299  0.32904024  0.01977827     0.06600
C632        C  0.83746719  0.36252901  0.01918278    -0.09500
C633        C  0.86679772  0.36591127  0.00009253     0.04100
C634        C  0.86173195  0.33557507  0.48145575    -0.08000
C635        C  0.82744875  0.30183247  0.48169676     0.06600
C636        C  0.79802837  0.29859183  0.00099054    -0.07500
H637        H  0.84144876  0.38601585  0.03360799     0.12200
H638        H  0.88444191  0.33829909  0.46662427     0.09800
H639        H  0.77148267  0.27265585  0.00131586     0.09600
C640        C  0.53405364  0.50017878  0.49921979     0.06600
C641        C  0.53344962  0.03383278  0.49914018    -0.09500
C642        C  0.99923914  0.03335059  0.49911718     0.04100
C643        C  0.96557122  0.49905383  0.49917273    -0.08000
C644        C  0.96600771  0.46530821  0.49924239     0.06600
C645        C  0.00029070  0.46596248  0.49926645    -0.07500
H646        H  0.55949950  0.06030561  0.49913545     0.12200
H647        H  0.93911439  0.49861887  0.49919293     0.09800
H648        H  0.00069314  0.43992392  0.49935605     0.09600
C649        C  0.97431038  0.17180305  0.48152950     0.06600
C650        C  0.00054297  0.20124327  0.00082012    -0.09500
C651        C  0.52603679  0.19627438  0.01956194     0.04100
C652        C  0.52509568  0.16187009  0.01891851    -0.08000
C653        C  0.99909209  0.13252737  0.99982851     0.06600
C654        C  0.97376504  0.13754242  0.48123693    -0.07500
H655        H  0.00114837  0.22776552  0.00118828     0.12200
H656        H  0.54463574  0.15791630  0.03331644     0.09800
H657        H  0.95373566  0.11482880  0.46640388     0.09600
C658        C  0.67016820  0.47335106  0.01961992     0.06600
C659        C  0.70060681  0.49882131  0.50077807    -0.09500
C660        C  0.69738507  0.02502145  0.48153328     0.04100
C661        C  0.66368314  0.02558243  0.48133249    -0.08000
C662        C  0.63336322  0.50031280  0.50003533     0.06600
C663        C  0.63671150  0.47431016  0.01907706    -0.07500
H664        H  0.72651645  0.49820245  0.50104665     0.12200
H665        H  0.66098437  0.04559578  0.46651426     0.09800
H666        H  0.61323669  0.45479034  0.03352356     0.09600
O667        O  0.60692090  0.30957453  0.16660354    -0.81800
O668        O  0.64821110  0.38499264  0.15162157    -0.78900
C669        C  0.67654444  0.40000585  0.16961976     1.01600
O670        O  0.70250764  0.39257032  0.16658010    -0.78900
O671        O  0.73661760  0.35125838  0.15183781    -0.81600
C672        C  0.72320405  0.32293979  0.16985691     1.06100
O673        O  0.68978233  0.29695432  0.16674321    -0.74300
O674        O  0.61436640  0.26275999  0.15175738    -0.74500
C675        C  0.59944647  0.27616131  0.16973375     1.06100
O676        O  0.59368444  0.29130002  0.10004473    -0.81800
O677        O  0.64017096  0.36589690  0.08514962    -0.78900
C678        C  0.66997673  0.39678257  0.08186476     1.01600
O679        O  0.69762533  0.40568734  0.09997885    -0.78900
O680        O  0.72574479  0.35921087  0.08527953    -0.81500
C681        C  0.72679345  0.32940599  0.08205662     1.06100
O682        O  0.70802441  0.30180242  0.10020841    -0.74400
O683        O  0.63344689  0.27365744  0.08526784    -0.74500
C684        C  0.60258163  0.27256347  0.08194546     1.06100
Cr685      Cr  0.62575822  0.33757036  0.12589258     1.93700
Cr686      Cr  0.71174370  0.37366886  0.12594944     1.93200
Cr687      Cr  0.66177678  0.28767675  0.12601967     1.39100
O688        O  0.66642890  0.33297593  0.12606433    -1.19600
C689        C  0.83099933  0.30246375  0.26780140     0.06600
C690        C  0.79996047  0.29690316  0.24960315    -0.09500
C691        C  0.80238260  0.32591209  0.23026991     0.04100
C692        C  0.83595143  0.36035259  0.22928165    -0.08000
C693        C  0.86690832  0.36597029  0.24732367     0.06600
C694        C  0.86432298  0.33700760  0.26647924    -0.07500
H695        H  0.77412978  0.27028842  0.25055360     0.12200
H696        H  0.83799168  0.38278110  0.21444827     0.09800
H697        H  0.88822969  0.34142992  0.28052398     0.09600
C698        C  0.50006463  0.03391426  0.24599337     0.06600
C699        C  0.96603030  0.49999891  0.24602339    -0.09500
C700        C  0.96568871  0.46586336  0.24591984     0.04100
C701        C  0.99960400  0.46575248  0.24583609    -0.08000
C702        C  0.53374805  0.99957986  0.24581782     0.06600
C703        C  0.53388473  0.03362174  0.24591335    -0.07500
H704        H  0.93986725  0.50015468  0.24613445     0.12200
H705        H  0.99941613  0.43941664  0.24580606     0.09800
H706        H  0.56022903  0.05980392  0.24594606     0.09600
C707        C  0.97126413  0.16845622  0.26782137     0.06600
C708        C  0.49669048  0.19944073  0.24953534    -0.09500
C709        C  0.52324835  0.19701199  0.23019432     0.04100
C710        C  0.52414807  0.16348576  0.22927676    -0.08000
C711        C  0.49886549  0.13257365  0.24740978     0.06600
C712        C  0.97250901  0.13516796  0.26658211    -0.07500
H713        H  0.49588921  0.22524256  0.25042619     0.12200
H714        H  0.54451810  0.16144588  0.21443148     0.09800
H715        H  0.95306414  0.11129887  0.28069717     0.09600
C716        C  0.67364120  0.47638055  0.22984557     0.06600
C717        C  0.70265987  0.50295349  0.24920407    -0.09500
C718        C  0.69712494  0.02840219  0.26744930     0.04100
C719        C  0.66260003  0.02716652  0.26615331    -0.08000
C720        C  0.63362599  0.50079603  0.24697639     0.06600
C721        C  0.63921797  0.47549294  0.22887571    -0.07500
H722        H  0.72925434  0.50373920  0.25014911     0.12200
H723        H  0.65819728  0.04661449  0.28025182     0.09800
H724        H  0.61677612  0.45510416  0.21403147     0.09600
C725        C  0.59809952  0.49970886  0.24609146    -0.09800
C726        C  0.56866790  0.99941430  0.24582277    -0.11300
C727        C  0.49993988  0.09813023  0.24651490    -0.09800
C728        C  0.50025107  0.06900971  0.24616056    -0.11300
C729        C  0.90139525  0.40149844  0.24637344    -0.09800
C730        C  0.93056157  0.43093169  0.24602783    -0.11300
C731        C  0.57239069  0.25193044  0.19311968    -0.09800
C732        C  0.54961485  0.22838245  0.21089316    -0.11300
C733        C  0.67935773  0.42712658  0.19292189    -0.09800
C734        C  0.67859804  0.44995610  0.21061640    -0.11300
C735        C  0.74743418  0.32015307  0.19326348    -0.09800
C736        C  0.77098046  0.32091610  0.21102541    -0.11300
C737        C  0.67266888  0.44624510  0.03990937    -0.09800
C738        C  0.67204252  0.42326834  0.05826055    -0.11300
C739        C  0.55314383  0.22585301  0.03990322    -0.09800
C740        C  0.57611608  0.24815957  0.05830284    -0.11300
C741        C  0.56930994  0.50071921  0.49934857    -0.09800
C742        C  0.59862620  0.50081084  0.49956958    -0.11300
C743        C  0.99857905  0.09728045  0.49935262    -0.09800
C744        C  0.99870616  0.06807200  0.49915992    -0.11300
C745        C  0.77345574  0.32655596  0.04009365    -0.09800
C746        C  0.75117158  0.32726771  0.05846180    -0.11300
C747        C  0.93126566  0.43002507  0.49938871    -0.09800
C748        C  0.90203798  0.40066622  0.49962527    -0.11300
C749        C  0.75102000  0.07359627  0.44311457    -0.09800
C750        C  0.72798481  0.05117326  0.46143260    -0.11300
C751        C  0.74801895  0.07786268  0.30717477    -0.09800
C752        C  0.72610500  0.05536891  0.28828524    -0.11300
C753        C  0.94813271  0.17626490  0.46149175    -0.09800
C754        C  0.92571208  0.17692109  0.44320819    -0.11300
C755        C  0.92173608  0.16988469  0.30739843    -0.09800
C756        C  0.94427047  0.17045076  0.28859215    -0.11300
C757        C  0.82904411  0.27348041  0.28857690    -0.09800
C758        C  0.82967940  0.25155547  0.30740343    -0.11300
C759        C  0.82239049  0.24821999  0.44328257    -0.09800
C760        C  0.82298569  0.27122822  0.46160772    -0.11300
O761        O  0.79004256  0.09387608  0.84969028    -0.81800
O762        O  0.86471450  0.13887111  0.83483696    -0.78900
C763        C  0.89591504  0.16826950  0.83148771     1.01600
O764        O  0.90561003  0.19590498  0.84981179    -0.78300
O765        O  0.86068395  0.22560880  0.83491556    -0.81600
C766        C  0.83129402  0.22737444  0.83151920     1.06100
O767        O  0.80364286  0.20939745  0.84982023    -0.74300
O768        O  0.77395939  0.13478355  0.83478679    -0.74500
C769        C  0.77215670  0.10361461  0.83135887     1.06100
O770        O  0.80849868  0.10685148  0.91631661    -0.81800
O771        O  0.88391503  0.14655422  0.90143975    -0.78900
C772        C  0.89918788  0.17476320  0.91958687     1.01600
O773        O  0.89252938  0.20123113  0.91642420    -0.78900
O774        O  0.85287073  0.23695579  0.90154276    -0.81500
C775        C  0.82461142  0.22393836  0.91963255     1.06100
O776        O  0.79813766  0.19078564  0.91639366    -0.74400
O777        O  0.76239390  0.11539691  0.90136572    -0.74500
C778        C  0.77535194  0.10014469  0.91949095     1.06100
Cr779      Cr  0.83652560  0.12505395  0.87560903     1.93700
Cr780      Cr  0.87440740  0.21114388  0.87570233     1.93200
Cr781      Cr  0.78831621  0.16285809  0.87562751     1.39100
O782        O  0.83308588  0.16635438  0.87576028    -1.19600
C783        C  0.80300629  0.32899700  0.51976855     0.06600
C784        C  0.83744637  0.36248123  0.51921173    -0.09500
C785        C  0.86679182  0.36588641  0.50012892     0.04100
C786        C  0.86172928  0.33557500  0.98145272    -0.08000
C787        C  0.82745085  0.30183037  0.98173231     0.06600
C788        C  0.79801140  0.29857372  0.50094805    -0.07500
H789        H  0.84142123  0.38594795  0.53366255     0.12200
H790        H  0.88442767  0.33828240  0.96661426     0.09800
H791        H  0.77146263  0.27264017  0.50124506     0.09600
C792        C  0.53405803  0.50018031  0.99909625     0.06600
C793        C  0.53345212  0.03383255  0.99901562    -0.09500
C794        C  0.99925574  0.03336660  0.99898170     0.04100
C795        C  0.96558395  0.49907309  0.99903769    -0.08000
C796        C  0.96601109  0.46532355  0.99910867     0.06600
C797        C  0.00028795  0.46596679  0.99913835    -0.07500
H798        H  0.55950649  0.06030107  0.99902309     0.12200
H799        H  0.93913075  0.49864588  0.99905968     0.09800
H800        H  0.00068246  0.43992405  0.99923479     0.09600
C801        C  0.97430822  0.17181750  0.98156068     0.06600
C802        C  0.00053335  0.20123868  0.50078940    -0.09500
C803        C  0.52600722  0.19627863  0.51955998     0.04100
C804        C  0.52505975  0.16187034  0.51895096    -0.08000
C805        C  0.99906537  0.13251206  0.49986992     0.06600
C806        C  0.97376939  0.13756145  0.98123326    -0.07500
H807        H  0.00114438  0.22776401  0.50113127     0.12200
H808        H  0.54458442  0.15792202  0.53337630     0.09800
H809        H  0.95372987  0.11485535  0.96639940     0.09600
C810        C  0.67019984  0.47337746  0.51962050     0.06600
C811        C  0.70059864  0.49881279  0.00080967    -0.09500
C812        C  0.69739014  0.02503665  0.98157078     0.04100
C813        C  0.66368625  0.02559135  0.98134262    -0.08000
C814        C  0.63335497  0.50030021  0.00001195     0.06600
C815        C  0.63674458  0.47434044  0.51910502    -0.07500
H816        H  0.72650842  0.49819440  0.00109764     0.12200
H817        H  0.66100085  0.04561265  0.96652433     0.09800
H818        H  0.61328894  0.45483631  0.53357715     0.09600
O819        O  0.60690904  0.30959178  0.66660367    -0.81800
O820        O  0.64824036  0.38501126  0.65163481    -0.78900
C821        C  0.67657643  0.40001253  0.66963084     1.01600
O822        O  0.70253158  0.39256601  0.66658233    -0.78900
O823        O  0.73660400  0.35121865  0.65183752    -0.81600
C824        C  0.72317932  0.32290144  0.66985857     1.06100
O825        O  0.68975322  0.29692505  0.66674244    -0.74300
O826        O  0.61433547  0.26276404  0.65176358    -0.74500
C827        C  0.59942309  0.27617508  0.66973779     1.06100
O828        O  0.59367256  0.29133523  0.60003868    -0.81800
O829        O  0.64019417  0.36593350  0.58515677    -0.78900
C830        C  0.67001168  0.39680896  0.58187029     1.01600
O831        O  0.69765989  0.40569285  0.59997957    -0.78900
O832        O  0.72573780  0.35917781  0.58527788    -0.81500
C833        C  0.72676410  0.32936110  0.58205061     1.06100
O834        O  0.70798116  0.30175916  0.60020098    -0.74400
O835        O  0.63340366  0.27364769  0.58527127    -0.74500
C836        C  0.60254991  0.27257795  0.58194499     1.06100
Cr837      Cr  0.62576584  0.33759465  0.62589564     1.93700
Cr838      Cr  0.71174994  0.37365038  0.62594937     1.93200
Cr839      Cr  0.66174292  0.28766036  0.62602006     1.39100
O840        O  0.66642175  0.33297222  0.62606488    -1.19600
C841        C  0.83098618  0.30246809  0.76783582     0.06600
C842        C  0.79993538  0.29690028  0.74964997    -0.09500
C843        C  0.80236002  0.32588472  0.73027998     0.04100
C844        C  0.83594337  0.36030990  0.72924526    -0.08000
C845        C  0.86691282  0.36593765  0.74727480     0.06600
C846        C  0.86432399  0.33699774  0.76646626    -0.07500
H847        H  0.77409529  0.27029704  0.75063481     0.12200
H848        H  0.83798584  0.38271919  0.71438377     0.09800
H849        H  0.88824024  0.34142608  0.78049983     0.09600
C850        C  0.50003729  0.03390880  0.74583212     0.06600
C851        C  0.96601145  0.49996021  0.74585998    -0.09500
C852        C  0.96569708  0.46583717  0.74575808     0.04100
C853        C  0.99962811  0.46575569  0.74567375    -0.08000
C854        C  0.53376531  0.99961571  0.74564945     0.06600
C855        C  0.53387223  0.03364362  0.74574600    -0.07500
H856        H  0.93983746  0.50009408  0.74597826     0.12200
H857        H  0.99946205  0.43943066  0.74565186     0.09800
H858        H  0.56020561  0.05983686  0.74578640     0.09600
C859        C  0.97128015  0.16846238  0.76786786     0.06600
C860        C  0.49669792  0.19945769  0.74958365    -0.09500
C861        C  0.52322806  0.19702624  0.73020500     0.04100
C862        C  0.52410116  0.16348721  0.72924380    -0.08000
C863        C  0.49882155  0.13256474  0.74736889     0.06600
C864        C  0.97250113  0.13516158  0.76658328    -0.07500
H865        H  0.49591517  0.22526794  0.75050650     0.12200
H866        H  0.54444922  0.16144520  0.71436959     0.09800
H867        H  0.95305705  0.11128398  0.78069018     0.09600
C868        C  0.67367176  0.47638258  0.72986410     0.06600
C869        C  0.70266658  0.50293374  0.74925558    -0.09500
C870        C  0.69711996  0.02840176  0.76748214     0.04100
C871        C  0.66260930  0.02719546  0.76613629    -0.08000
C872        C  0.63365884  0.50082841  0.74693197     0.06600
C873        C  0.63926223  0.47552123  0.72884778    -0.07500
H874        H  0.72925079  0.50370087  0.75023516     0.12200
H875        H  0.65820091  0.04664897  0.78022063     0.09800
H876        H  0.61683923  0.45514962  0.71397842     0.09600
C877        C  0.59814018  0.49976036  0.74599760    -0.09800
C878        C  0.56870237  0.99947877  0.74568286    -0.11300
C879        C  0.49987709  0.09811029  0.74642675    -0.09800
C880        C  0.50019567  0.06899258  0.74603249    -0.11300
C881        C  0.90141361  0.40145519  0.74627581    -0.09800
C882        C  0.93058047  0.43088993  0.74589348    -0.11300
C883        C  0.57236578  0.25195153  0.69312899    -0.09800
C884        C  0.54959149  0.22840459  0.71090598    -0.11300
C885        C  0.67939988  0.42713092  0.69294282    -0.09800
C886        C  0.67863969  0.44995830  0.71064154    -0.11300
C887        C  0.74740187  0.32010933  0.69327287    -0.09800
C888        C  0.77094868  0.32087727  0.71103906    -0.11300
C889        C  0.67271914  0.44628270  0.53991422    -0.09800
C890        C  0.67209231  0.42330595  0.55826768    -0.11300
C891        C  0.55310390  0.22586879  0.53990195    -0.09800
C892        C  0.57607498  0.24817787  0.55830284    -0.11300
C893        C  0.56930741  0.50071067  0.99925656    -0.09800
C894        C  0.59861923  0.50079618  0.99951116    -0.11300
C895        C  0.99861208  0.09730144  0.99927174    -0.09800
C896        C  0.99873532  0.06809246  0.99904784    -0.11300
C897        C  0.77341629  0.32649437  0.54008119    -0.09800
C898        C  0.75113314  0.32720738  0.55845188    -0.11300
C899        C  0.93126593  0.43004752  0.99927636    -0.09800
C900        C  0.90203805  0.40069182  0.99954556    -0.11300
C901        C  0.75103934  0.07361630  0.94317284    -0.09800
C902        C  0.72800325  0.05119495  0.96148899    -0.11300
C903        C  0.74800076  0.07784564  0.80723379    -0.09800
C904        C  0.72608481  0.05535503  0.78834117    -0.11300
C905        C  0.94812024  0.17628798  0.96154828    -0.09800
C906        C  0.92569710  0.17694442  0.94326993    -0.11300
C907        C  0.92176689  0.16989501  0.80746921    -0.09800
C908        C  0.94430014  0.17045536  0.78866229    -0.11300
C909        C  0.82903311  0.27350059  0.78863444    -0.09800
C910        C  0.82966720  0.25157603  0.80746409    -0.11300
C911        C  0.82237308  0.24819720  0.94334218    -0.09800
C912        C  0.82297338  0.27120814  0.96166468    -0.11300
O913        O  0.79003820  0.59386874  0.34965251    -0.81800
O914        O  0.86470550  0.63885861  0.33480129    -0.78900
C915        C  0.89590487  0.66825754  0.33145080     1.01600
O916        O  0.90560506  0.69588857  0.34977997    -0.78300
O917        O  0.86068577  0.72559128  0.33488134    -0.81600
C918        C  0.83129547  0.72735410  0.33147920     1.06100
O919        O  0.80364715  0.70938921  0.34978426    -0.74300
O920        O  0.77396294  0.63478175  0.33474957    -0.74500
C921        C  0.77216256  0.60361464  0.33131751     1.06100
O922        O  0.80847959  0.60682796  0.41627834    -0.81800
O923        O  0.88390561  0.64653181  0.40140612    -0.78900
C924        C  0.89918883  0.67474352  0.41955014     1.01600
O925        O  0.89253285  0.70121425  0.41639039    -0.78900
O926        O  0.85287633  0.73694901  0.40151045    -0.81500
C927        C  0.82461392  0.72393874  0.41959685     1.06100
O928        O  0.79813633  0.69078655  0.41635763    -0.74400
O929        O  0.76238449  0.61539048  0.40132862    -0.74500
C930        C  0.77533313  0.60012576  0.41944992     1.06100
Cr931      Cr  0.83651646  0.62503867  0.37557395     1.93700
Cr932      Cr  0.87440752  0.71112977  0.37567026     1.93200
Cr933      Cr  0.78831537  0.66285294  0.37559224     1.39100
O934        O  0.83308247  0.66634267  0.37572940    -1.19600
C935        C  0.80304406  0.82903341  0.01979655     0.06600
C936        C  0.83747977  0.86252064  0.01919960    -0.09500
C937        C  0.86680987  0.86589875  0.00011095     0.04100
C938        C  0.86174142  0.83555685  0.48148519    -0.08000
C939        C  0.82745413  0.80181823  0.48172823     0.06600
C940        C  0.79803761  0.79858203  0.00101196    -0.07500
H941        H  0.84146226  0.88601013  0.03362145     0.12200
H942        H  0.88444763  0.83827544  0.46665153     0.09800
H943        H  0.77149033  0.77264775  0.00133749     0.09600
C944        C  0.53407209  0.00018434  0.49922107     0.06600
C945        C  0.53343724  0.53383033  0.49914732    -0.09500
C946        C  0.99923763  0.53335911  0.49912175     0.04100
C947        C  0.96557645  0.99904143  0.49917320    -0.08000
C948        C  0.96602036  0.96529939  0.49924933     0.06600
C949        C  0.00030702  0.96596136  0.49927405    -0.07500
H950        H  0.55948949  0.56030090  0.49914664     0.12200
H951        H  0.93911678  0.99860064  0.49919316     0.09800
H952        H  0.00071531  0.93992576  0.49936856     0.09600
C953        C  0.97431108  0.67181101  0.48154271     0.06600
C954        C  0.00054515  0.70124932  0.00082979    -0.09500
C955        C  0.52603670  0.69628300  0.01956719     0.04100
C956        C  0.52509704  0.66187952  0.01892704    -0.08000
C957        C  0.99909333  0.63253315  0.99984767     0.06600
C958        C  0.97376654  0.63755081  0.48125020    -0.07500
H959        H  0.00115128  0.72777212  0.00119407     0.12200
H960        H  0.54464017  0.65792922  0.03332386     0.09800
H961        H  0.95373356  0.61483503  0.46642114     0.09600
C962        C  0.67018147  0.97336090  0.01961367     0.06600
C963        C  0.70061983  0.99881677  0.50076465    -0.09500
C964        C  0.69737010  0.52502161  0.48154316     0.04100
C965        C  0.66366542  0.52557738  0.48133671    -0.08000
C966        C  0.63338190  0.00031944  0.50003252     0.06600
C967        C  0.63672428  0.97431925  0.01907482    -0.07500
H968        H  0.72652755  0.99819418  0.50102963     0.12200
H969        H  0.66096535  0.54558765  0.46651526     0.09800
H970        H  0.61325191  0.95479991  0.03352377     0.09600
O971        O  0.60692058  0.80958617  0.16660278    -0.81800
O972        O  0.64821517  0.88500364  0.15161847    -0.78900
C973        C  0.67654652  0.90001468  0.16961861     1.01600
O974        O  0.70250911  0.89257798  0.16658106    -0.78900
O975        O  0.73661696  0.85126228  0.15184418    -0.81600
C976        C  0.72320112  0.82294212  0.16986171     1.06100
O977        O  0.68977881  0.79695862  0.16674674    -0.74300
O978        O  0.61436385  0.76276922  0.15176022    -0.74500
C979        C  0.59944595  0.77617303  0.16973644     1.06100
O980        O  0.59368751  0.79131180  0.10004373    -0.81800
O981        O  0.64017914  0.86590821  0.08514727    -0.78900
C982        C  0.66998685  0.89679252  0.08186227     1.01600
O983        O  0.69763405  0.90569548  0.09997785    -0.78900
O984        O  0.72575197  0.85921566  0.08528448    -0.81500
C985        C  0.72679820  0.82940929  0.08206299     1.06100
O986        O  0.70802372  0.80180524  0.10021297    -0.74400
O987        O  0.63344775  0.77366535  0.08526975    -0.74500
C988        C  0.60258410  0.77257415  0.08194555     1.06100
Cr989      Cr  0.62576198  0.83758141  0.12589093     1.93700
Cr990      Cr  0.71174747  0.87367510  0.12595220     1.93200
Cr991      Cr  0.66177542  0.78768314  0.12602252     1.39100
O992        O  0.66643108  0.83298389  0.12606551    -1.19600
C993        C  0.83098336  0.80244395  0.26780761     0.06600
C994        C  0.79994590  0.79688634  0.24960837    -0.09500
C995        C  0.80237216  0.82589693  0.23027449     0.04100
C996        C  0.83594319  0.86033514  0.22928673    -0.08000
C997        C  0.86689787  0.86594929  0.24732990     0.06600
C998        C  0.86430886  0.83698567  0.26648580    -0.07500
H999        H  0.77411350  0.77027331  0.25055885     0.12200
H1000       H  0.83798671  0.88276500  0.21445332     0.09800
H1001       H  0.88821422  0.84140589  0.28053159     0.09600
C1002       C  0.50008891  0.53393616  0.24601396     0.06600
C1003       C  0.96600429  0.99997536  0.24601634    -0.09500
C1004       C  0.96567301  0.96584512  0.24592348     0.04100
C1005       C  0.99959315  0.96574408  0.24584191    -0.08000
C1006       C  0.53375838  0.49958773  0.24582258     0.06600
C1007       C  0.53390426  0.53363420  0.24593063    -0.07500
H1008       H  0.93983732  0.00012338  0.24612511     0.12200
H1009       H  0.99941302  0.93941194  0.24581928     0.09800
H1010       H  0.56025210  0.55981271  0.24597052     0.09600
C1011       C  0.97129862  0.66847515  0.26786071     0.06600
C1012       C  0.49670971  0.69946102  0.24956365    -0.09500
C1013       C  0.52326911  0.69703526  0.23022133     0.04100
C1014       C  0.52417771  0.66351328  0.22930988    -0.08000
C1015       C  0.49890294  0.63260284  0.24744885     0.06600
C1016       C  0.97255396  0.63519203  0.26662562    -0.07500
H1017       H  0.49589996  0.72525853  0.25044899     0.12200
H1018       H  0.54454694  0.66147444  0.21446258     0.09800
H1019       H  0.95311374  0.61132279  0.28074271     0.09600
C1020       C  0.67363746  0.97638683  0.22984195     0.06600
C1021       C  0.70265708  0.00296197  0.24919779    -0.09500
C1022       C  0.69712699  0.52839225  0.26745761     0.04100
C1023       C  0.66260207  0.52715670  0.26616107    -0.08000
C1024       C  0.63362264  0.00080311  0.24697145     0.06600
C1025       C  0.63921366  0.97549803  0.22887278    -0.07500
H1026       H  0.72925178  0.00374812  0.25014253     0.12200
H1027       H  0.65819852  0.54660323  0.28026083     0.09800
H1028       H  0.61677083  0.95510702  0.21403068     0.09600
C1029       C  0.59809548  0.99971417  0.24608791    -0.09800
C1030       C  0.56867390  0.49941320  0.24582605    -0.11300
C1031       C  0.49997886  0.59815990  0.24655242    -0.09800
C1032       C  0.50028513  0.56903674  0.24619232    -0.11300
C1033       C  0.90138578  0.90147564  0.24638145    -0.09800
C1034       C  0.93055087  0.93090945  0.24603565    -0.11300
C1035       C  0.57239459  0.75194586  0.19312834    -0.09800
C1036       C  0.54962564  0.72840223  0.21090983    -0.11300
C1037       C  0.67935765  0.92713390  0.19292075    -0.09800
C1038       C  0.67859502  0.94996221  0.21061443    -0.11300
C1039       C  0.74742898  0.82015029  0.19326779    -0.09800
C1040       C  0.77097212  0.82090653  0.21102974    -0.11300
C1041       C  0.67268486  0.94625593  0.03990336    -0.09800
C1042       C  0.67205667  0.92327899  0.05825596    -0.11300
C1043       C  0.55314561  0.72586466  0.03990438    -0.09800
C1044       C  0.57611907  0.74817164  0.05830262    -0.11300
C1045       C  0.56933101  0.00073030  0.49935121    -0.09800
C1046       C  0.59864719  0.00082187  0.49957095    -0.11300
C1047       C  0.99858649  0.59729294  0.49936147    -0.09800
C1048       C  0.99871150  0.56808367  0.49916801    -0.11300
C1049       C  0.77346594  0.82655459  0.04010812    -0.09800
C1050       C  0.75117978  0.82726942  0.05847222    -0.11300
C1051       C  0.93128226  0.93001208  0.49940279    -0.09800
C1052       C  0.90205649  0.90065115  0.49964587    -0.11300
C1053       C  0.75100979  0.57359148  0.44312614    -0.09800
C1054       C  0.72797117  0.55117203  0.46144363    -0.11300
C1055       C  0.74801924  0.57785376  0.30718496    -0.09800
C1056       C  0.72610642  0.55535875  0.28829503    -0.11300
C1057       C  0.94812843  0.67626960  0.46150945    -0.09800
C1058       C  0.92570478  0.67692295  0.44322799    -0.11300
C1059       C  0.92175251  0.66988962  0.30742737    -0.09800
C1060       C  0.94429615  0.67046203  0.28862724    -0.11300
C1061       C  0.82902607  0.77346118  0.28858484    -0.09800
C1062       C  0.82966493  0.75154055  0.30741405    -0.11300
C1063       C  0.82237942  0.74820441  0.44330580    -0.09800
C1064       C  0.82298097  0.77121196  0.46163585    -0.11300
O1065       O  0.79004330  0.59386394  0.84970222    -0.81800
O1066       O  0.86471595  0.63886070  0.83484895    -0.78900
C1067       C  0.89591468  0.66826118  0.83149785     1.01600
O1068       O  0.90560547  0.69589916  0.84981813    -0.78300
O1069       O  0.86067246  0.72559812  0.83492643    -0.81600
C1070       C  0.83128166  0.72736311  0.83153386     1.06100
O1071       O  0.80363172  0.70938242  0.84983517    -0.74300
O1072       O  0.77395305  0.63476688  0.83479988    -0.74500
C1073       C  0.77215459  0.60359958  0.83137131     1.06100
O1074       O  0.80849894  0.60684132  0.91632911    -0.81800
O1075       O  0.88391477  0.64654715  0.90145161    -0.78900
C1076       C  0.89918799  0.67475804  0.91959641     1.01600
O1077       O  0.89252902  0.70122532  0.91643168    -0.78900
O1078       O  0.85286389  0.73694288  0.90155528    -0.81500
C1079       C  0.82460683  0.72392326  0.91964779     1.06100
O1080       O  0.79813310  0.69077035  0.91640807    -0.74400
O1081       O  0.76239159  0.61538201  0.90137782    -0.74500
C1082       C  0.77535158  0.60013254  0.91950361     1.06100
Cr1083     Cr  0.83652558  0.62504416  0.87562099     1.93700
Cr1084     Cr  0.87440148  0.71113444  0.87571140     1.93200
Cr1085     Cr  0.78831065  0.66284305  0.87564073     1.39100
O1086       O  0.83308224  0.66634292  0.87577109    -1.19600
C1087       C  0.80302383  0.82899475  0.51980050     0.06600
C1088       C  0.83746783  0.86247471  0.51924131    -0.09500
C1089       C  0.86680909  0.86587231  0.50015679     0.04100
C1090       C  0.86173958  0.83555909  0.98147460    -0.08000
C1091       C  0.82745932  0.80181587  0.98175523     0.06600
C1092       C  0.79802106  0.79856754  0.50098117    -0.07500
H1093       H  0.84144817  0.88594486  0.53368990     0.12200
H1094       H  0.88443697  0.83826343  0.96663669     0.09800
H1095       H  0.77146881  0.77263784  0.50127897     0.09600
C1096       C  0.53406224  0.00017840  0.99909806     0.06600
C1097       C  0.53345187  0.53383659  0.99902149    -0.09500
C1098       C  0.99925522  0.53337233  0.99899623     0.04100
C1099       C  0.96558661  0.99906482  0.99902963    -0.08000
C1100       C  0.96601837  0.96531737  0.99910982     0.06600
C1101       C  0.00029767  0.96596556  0.99914198    -0.07500
H1102       H  0.55950762  0.56030361  0.99903298     0.12200
H1103       H  0.93913179  0.99863400  0.99905017     0.09800
H1104       H  0.00069593  0.93992483  0.99924558     0.09600
C1105       C  0.97430880  0.67182034  0.98157411     0.06600
C1106       C  0.00053846  0.70124933  0.50079760    -0.09500
C1107       C  0.52601469  0.69628768  0.51957578     0.04100
C1108       C  0.52506477  0.66187841  0.51896702    -0.08000
C1109       C  0.99907250  0.63252401  0.49987816     0.06600
C1110       C  0.97376928  0.63756399  0.98125156    -0.07500
H1111       H  0.00114858  0.72777432  0.50113974     0.12200
H1112       H  0.54459142  0.65793001  0.53338935     0.09800
H1113       H  0.95372885  0.61485552  0.96642018     0.09600
C1114       C  0.67021341  0.97337469  0.51960953     0.06600
C1115       C  0.70060870  0.99882227  0.00079965    -0.09500
C1116       C  0.69738410  0.52502837  0.98157987     0.04100
C1117       C  0.66368088  0.52558442  0.98134724    -0.08000
C1118       C  0.63336376  0.00030753  0.00001057     0.06600
C1119       C  0.63676116  0.97434341  0.51909858    -0.07500
H1120       H  0.72651894  0.99820483  0.00108428     0.12200
H1121       H  0.66099877  0.54560708  0.96652807     0.09800
H1122       H  0.61330597  0.95484104  0.53357223     0.09600
O1123       O  0.60691084  0.80959865  0.66661580    -0.81800
O1124       O  0.64823580  0.88501889  0.65164025    -0.78900
C1125       C  0.67657129  0.90002539  0.66963621     1.01600
O1126       O  0.70252928  0.89258258  0.66659124    -0.78900
O1127       O  0.73660794  0.85123789  0.65185900    -0.81600
C1128       C  0.72318398  0.82291959  0.66987898     1.06100
O1129       O  0.68975939  0.79694076  0.66676053    -0.74300
O1130       O  0.61434266  0.76277346  0.65177842    -0.74500
C1131       C  0.59942878  0.77618303  0.66975259     1.06100
O1132       O  0.59367925  0.79133871  0.60005143    -0.81800
O1133       O  0.64019584  0.86593679  0.58516413    -0.78900
C1134       C  0.67001421  0.89681125  0.58187359     1.01600
O1135       O  0.69766198  0.90569929  0.59998465    -0.78900
O1136       O  0.72574976  0.85919003  0.58529565    -0.81500
C1137       C  0.72677846  0.82937420  0.58207195     1.06100
O1138       O  0.70799284  0.80177251  0.60022164    -0.74400
O1139       O  0.63341569  0.77365737  0.58528610    -0.74500
C1140       C  0.60256074  0.77258474  0.58195811     1.06100
Cr1141     Cr  0.62576773  0.83760043  0.62590554     1.93700
Cr1142     Cr  0.71175358  0.87366365  0.62596284     1.93200
Cr1143     Cr  0.66175173  0.78767257  0.62603664     1.39100
O1144       O  0.66642680  0.83298294  0.62607824    -1.19600
C1145       C  0.83097620  0.80246789  0.76786067     0.06600
C1146       C  0.79992721  0.79690577  0.74967487    -0.09500
C1147       C  0.80235775  0.82589204  0.73030363     0.04100
C1148       C  0.83594506  0.86031307  0.72926753    -0.08000
C1149       C  0.86691239  0.86593547  0.74729708     0.06600
C1150       C  0.86431791  0.83699428  0.76649026    -0.07500
H1151       H  0.77408418  0.77030508  0.75065999     0.12200
H1152       H  0.83799229  0.88272336  0.71440460     0.09800
H1153       H  0.88823288  0.84141849  0.78052334     0.09600
C1154       C  0.50006229  0.53391076  0.74585103     0.06600
C1155       C  0.96599910  0.99995350  0.74585085    -0.09500
C1156       C  0.96569479  0.96583559  0.74575767     0.04100
C1157       C  0.99963079  0.96576407  0.74567074    -0.08000
C1158       C  0.53377767  0.49960454  0.74565880     0.06600
C1159       C  0.53389307  0.53363689  0.74576641    -0.07500
H1160       H  0.93982121  0.00007976  0.74597164     0.12200
H1161       H  0.99947252  0.93944292  0.74565594     0.09800
H1162       H  0.56022963  0.55982658  0.74581609     0.09600
C1163       C  0.97129501  0.66846284  0.76788732     0.06600
C1164       C  0.49671685  0.69945892  0.74961038    -0.09500
C1165       C  0.52325105  0.69703206  0.73023309     0.04100
C1166       C  0.52413204  0.66349663  0.72927631    -0.08000
C1167       C  0.49885644  0.63257345  0.74740358     0.06600
C1168       C  0.97252527  0.63516664  0.76660760    -0.07500
H1169       H  0.49592666  0.72526527  0.75052899     0.12200
H1170       H  0.54448155  0.66145708  0.71440219     0.09800
H1171       H  0.95308420  0.61128883  0.78071596     0.09600
C1172       C  0.67366213  0.97640218  0.72985708     0.06600
C1173       C  0.70265795  0.00295311  0.74924724    -0.09500
C1174       C  0.69712539  0.52837889  0.76749331     0.04100
C1175       C  0.66261284  0.52716847  0.76614887    -0.08000
C1176       C  0.63365377  0.00085473  0.74692078     0.06600
C1177       C  0.63925433  0.97554409  0.72883912    -0.07500
H1178       H  0.72924053  0.00371697  0.75022837     0.12200
H1179       H  0.65820218  0.54661956  0.78023469     0.09800
H1180       H  0.61683017  0.95517167  0.71397112     0.09600
C1181       C  0.59813502  0.99978634  0.74598720    -0.09800
C1182       C  0.56871023  0.49945836  0.74569290    -0.11300
C1183       C  0.49991398  0.59811927  0.74645988    -0.09800
C1184       C  0.50022903  0.56899938  0.74606073    -0.11300
C1185       C  0.90141679  0.90144912  0.74629453    -0.09800
C1186       C  0.93058300  0.93088403  0.74590479    -0.11300
C1187       C  0.57237578  0.75195857  0.69314763    -0.09800
C1188       C  0.54960769  0.72841041  0.71092855    -0.11300
C1189       C  0.67939055  0.92714537  0.69294396    -0.09800
C1190       C  0.67862804  0.94997437  0.71063862    -0.11300
C1191       C  0.74740562  0.82012761  0.69329444    -0.09800
C1192       C  0.77094936  0.82089088  0.71106174    -0.11300
C1193       C  0.67272997  0.94627852  0.53990451    -0.09800
C1194       C  0.67209774  0.92330290  0.55826306    -0.11300
C1195       C  0.55311568  0.72587771  0.53991457    -0.09800
C1196       C  0.57608849  0.74818540  0.55831475    -0.11300
C1197       C  0.56931363  0.00071291  0.99925934    -0.09800
C1198       C  0.59862683  0.00080121  0.99951302    -0.11300
C1199       C  0.99861492  0.59730832  0.99929346    -0.09800
C1200       C  0.99873845  0.56809969  0.99906827    -0.11300
C1201       C  0.77343608  0.82650191  0.54011100    -0.09800
C1202       C  0.75115220  0.82722013  0.55847787    -0.11300
C1203       C  0.93127569  0.93003831  0.99928458    -0.09800
C1204       C  0.90204981  0.90068030  0.99955901    -0.11300
C1205       C  0.75103983  0.57360537  0.94318617    -0.09800
C1206       C  0.72800083  0.55118559  0.96150113    -0.11300
C1207       C  0.74800126  0.57782857  0.80724556    -0.09800
C1208       C  0.72608876  0.55533470  0.78835260    -0.11300
C1209       C  0.94812068  0.67628800  0.96155981    -0.09800
C1210       C  0.92569751  0.67694190  0.94328009    -0.11300
C1211       C  0.92177012  0.66988706  0.80748176    -0.09800
C1212       C  0.94430834  0.67045045  0.78867816    -0.11300
C1213       C  0.82901915  0.77349676  0.78865735    -0.09800
C1214       C  0.82965275  0.75156857  0.80748341    -0.11300
C1215       C  0.82237191  0.74818029  0.94336187    -0.09800
C1216       C  0.82297729  0.77119187  0.96168692    -0.11300
loop_ 
_geom_bond_atom_site_label_1 
_geom_bond_atom_site_label_2 
_geom_bond_distance 
_geom_bond_site_symmetry_2 
_ccdc_geom_bond_type 
O1          Cr19   2.014       .  S
O1            C9   1.265       .  A
O2          Cr19   1.988       .  S
O2            C3   1.261       .  A
C3            O4   1.265       .  A
C3          C147   1.447       .  S
O4          Cr20   2.014       .  S
O5          Cr20   1.989       .  S
O5            C6   1.261       .  A
C6            O7   1.265       .  A
C6          C150   1.447       .  S
O7          Cr21   2.014       .  S
O8          Cr21   1.988       .  S
O8            C9   1.261       .  A
C9          C143   1.447       .  S
O10         Cr19   1.990       .  S
O10          C18   1.261       .  A
O11         Cr19   2.015       .  S
O11          C12   1.266       .  A
C12          O13   1.261       .  A
C12         C146   1.449       .  S
O13         Cr20   1.991       .  S
O14         Cr20   2.015       .  S
O14          C15   1.266       .  A
C15          O16   1.261       .  A
C15         C151   1.449       .  S
O16         Cr21   1.991       .  S
O17         Cr21   2.015       .  S
O17          C18   1.266       .  A
C18         C141   1.449       .  S
Cr19         O22   1.782       .  S
Cr20         O22   1.782       .  S
Cr21         O22   1.782       .  S
C23         C137   1.452       .  S
C23          C24   1.403       .  A
C23          C28   1.410       .  A
C24          C25   1.401       .  A
C24          H29   1.085       .  S
C25         C292   1.446   1_554  S
C25         C178   1.402   1_554  A
C26          C27   1.405       .  A
C26         C177   1.402       .  A
C26          H30   1.085       .  S
C27         C152   1.454       .  S
C27         C180   1.410       .  A
C28         C179   1.410   1_554  A
C28          H31   1.084       .  S
C32         C133   1.446       .  S
C32         C337   1.404       .  A
C32         C645   1.404       .  A
C33         C336   1.404       .  A
C33         C642   1.404   1_455  A
C33          H38   1.084       .  S
C34         C136   1.446       .  S
C34         C641   1.404       .  A
C34         C339   1.404   1_545  A
C35          C36   1.404       .  A
C35         C338   1.404       .  A
C35          H39   1.084       .  S
C36         C139   1.446       .  S
C36          C37   1.403       .  A
C37         C640   1.404       .  A
C37          H40   1.084       .  S
C41         C145   1.453       .  S
C41          C46   1.405       .  A
C41         C194   1.410       .  A
C42         C193   1.410   1_554  A
C42         C651   1.410       .  A
C42          H47   1.084       .  S
C43         C131   1.452       .  S
C43          C44   1.403       .  A
C43         C650   1.410       .  A
C44         C653   1.401   1_454  A
C44          H48   1.085       .  S
C45         C287   1.446       .  S
C45         C652   1.401   1_556  A
C45         C198   1.402       .  A
C46         C197   1.402       .  A
C46          H49   1.085       .  S
C50         C129   1.452       .  S
C50          C55   1.403       .  A
C50         C203   1.410       .  A
C51         C202   1.410       .  A
C51         C356   1.410       .  A
C51          H56   1.084       .  S
C52         C142   1.453       .  S
C52          C53   1.405       .  A
C52         C355   1.410   1_545  A
C53         C358   1.402       .  A
C53          H57   1.085       .  S
C54         C134   1.446       .  S
C54         C357   1.402       .  A
C54         C207   1.401       .  A
C55         C206   1.401       .  A
C55          H58   1.085       .  S
O59         Cr77   1.992       .  S
O59          C67   1.262       .  A
O60         Cr77   2.012       .  S
O60          C61   1.265       .  A
C61          O62   1.262       .  A
C61         C125   1.449       .  S
O62         Cr78   1.993       .  S
O63         Cr78   2.013       .  S
O63          C64   1.265       .  A
C64          O65   1.262       .  A
C64         C127   1.449       .  S
O65         Cr79   1.992       .  S
O66         Cr79   2.012       .  S
O66          C67   1.265       .  A
C67         C123   1.448       .  S
O68         Cr77   2.013       .  S
O68          C76   1.264       .  A
O69         Cr77   1.989       .  S
O69          C70   1.261       .  A
C70          O71   1.264       .  A
C70         C130   1.448       .  S
O71         Cr78   2.014       .  S
O72         Cr78   1.990       .  S
O72          C73   1.261       .  A
C73          O74   1.264       .  A
C73         C138   1.448       .  S
O74         Cr79   2.013       .  S
O75         Cr79   1.990       .  S
O75          C76   1.261       .  A
C76         C132   1.447       .  S
Cr77         O80   1.783       .  S
Cr78         O80   1.783       .  S
Cr79         O80   1.783       .  S
C81         C149   1.451       .  S
C81          C82   1.410       .  A
C81          C86   1.403       .  A
C82          C83   1.410       .  A
C82          H87   1.084       .  S
C83         C128   1.453       .  S
C83          C84   1.405       .  A
C84          C85   1.403       .  A
C84          H88   1.085       .  S
C85         C121   1.447       .  S
C85          C86   1.401       .  A
C86          H89   1.085       .  S
C90         C120   1.446       .  S
C90          C95   1.404       .  A
C90        C1003   1.404   1_445  A
C91          C92   1.404       .  A
C91        C1002   1.404       .  A
C91          H96   1.084       .  S
C92         C122   1.446       .  S
C92          C93   1.404       .  A
C93        C1006   1.404       .  A
C93          H97   1.084       .  S
C94         C118   1.447       .  S
C94          C95   1.404   1_565  A
C94        C1005   1.404   1_455  A
C95          H98   1.084       .  S
C99         C148   1.451       .  S
C99         C104   1.403       .  A
C99         C708   1.410       .  A
C100        C101   1.409   1_655  A
C100        C707   1.410       .  A
C100        H105   1.084       .  S
C101        C124   1.453       .  S
C101        C102   1.405       .  A
C102        C103   1.403   1_455  A
C102        H106   1.085       .  S
C103        C119   1.447       .  S
C103        C712   1.401       .  A
C104        C711   1.401       .  A
C104        H107   1.085       .  S
C108        C126   1.453       .  S
C108        C109   1.409       .  A
C108        C113   1.405       .  A
C109        C414   1.410       .  A
C109        H114   1.084       .  S
C110        C144   1.451       .  S
C110        C111   1.403       .  A
C110        C413   1.410       .  A
C111        C416   1.401       .  A
C111        H115   1.085       .  S
C112        C117   1.447       .  S
C112        C113   1.403       .  A
C112        C415   1.401       .  A
C113        H116   1.085       .  S
C117        C422   1.210       .  T
C118        C421   1.210       .  T
C119        C120   1.210   1_655  T
C121        C122   1.210       .  T
C123        C124   1.214       .  T
C125        C126   1.214       .  T
C127        C128   1.214       .  T
C129        C130   1.213       .  T
C131        C132   1.213       .  T
C133        C134   1.210       .  T
C135        C197   1.446       .  S
C135        C136   1.210       .  T
C137        C138   1.213       .  T
C139        C140   1.210       .  T
C140        C177   1.446       .  S
C141        C142   1.214       .  T
C143        C144   1.213       .  T
C145        C146   1.214       .  T
C147        C148   1.213       .  T
C149        C150   1.213       .  T
C151        C152   1.214       .  T
O153       Cr171   2.014       .  S
O153        C161   1.265       .  A
O154       Cr171   1.988       .  S
O154        C155   1.261       .  A
C155        O156   1.265       .  A
C155        C299   1.447       .  S
O156       Cr172   2.014       .  S
O157       Cr172   1.989       .  S
O157        C158   1.261       .  A
C158        O159   1.265       .  A
C158        C302   1.447       .  S
O159       Cr173   2.014       .  S
O160       Cr173   1.988       .  S
O160        C161   1.261       .  A
C161        C295   1.447       .  S
O162       Cr171   1.990       .  S
O162        C170   1.261       .  A
O163       Cr171   2.015       .  S
O163        C164   1.266       .  A
C164        O165   1.261       .  A
C164        C298   1.449       .  S
O165       Cr172   1.991       .  S
O166       Cr172   2.015       .  S
O166        C167   1.266       .  A
C167        O168   1.261       .  A
C167        C303   1.449       .  S
O168       Cr173   1.991       .  S
O169       Cr173   2.015       .  S
O169        C170   1.266       .  A
C170        C293   1.449       .  S
Cr171       O174   1.782       .  S
Cr172       O174   1.782       .  S
Cr173       O174   1.782       .  S
C175        C289   1.452       .  S
C175        C176   1.403       .  A
C175        C180   1.410       .  A
C176        C177   1.401       .  A
C176        H181   1.085       .  S
C178        C179   1.405       .  A
C178        H182   1.085       .  S
C179        C304   1.453       .  S
C180        H183   1.084       .  S
C184        C285   1.446       .  S
C184        C489   1.404       .  A
C184        C797   1.404       .  A
C185        C488   1.404       .  A
C185        C794   1.404   1_455  A
C185        H190   1.084       .  S
C186        C288   1.446       .  S
C186        C793   1.404       .  A
C186        C491   1.403   1_545  A
C187        C490   1.403       .  A
C187        C188   1.404       .  A
C187        H191   1.084       .  S
C188        C291   1.446       .  S
C188        C189   1.403       .  A
C189        C792   1.404       .  A
C189        H192   1.084       .  S
C193        C297   1.453       .  S
C193        C198   1.405       .  A
C194        C803   1.410       .  A
C194        H199   1.084       .  S
C195        C283   1.452       .  S
C195        C802   1.410       .  A
C195        C196   1.403       .  A
C196        C805   1.401   1_455  A
C196        H200   1.085       .  S
C197        C804   1.401       .  A
C198        H201   1.085       .  S
C202        C281   1.452       .  S
C202        C207   1.403       .  A
C203        C508   1.410   1_554  A
C203        H208   1.084       .  S
C204        C294   1.453       .  S
C204        C507   1.410   1_546  A
C204        C205   1.405       .  A
C205        C510   1.402   1_556  A
C205        H209   1.085       .  S
C206        C286   1.446   1_554  S
C206        C509   1.402   1_554  A
C207        H210   1.085       .  S
O211       Cr229   1.992       .  S
O211        C219   1.262       .  A
O212       Cr229   2.012       .  S
O212        C213   1.265       .  A
C213        O214   1.262       .  A
C213        C277   1.449       .  S
O214       Cr230   1.993       .  S
O215       Cr230   2.013       .  S
O215        C216   1.265       .  A
C216        O217   1.262       .  A
C216        C279   1.449       .  S
O217       Cr231   1.993       .  S
O218       Cr231   2.012       .  S
O218        C219   1.265       .  A
C219        C275   1.448       .  S
O220       Cr229   2.014       .  S
O220        C228   1.264       .  A
O221       Cr229   1.990       .  S
O221        C222   1.261       .  A
C222        O223   1.264       .  A
C222        C282   1.448       .  S
O223       Cr230   2.014       .  S
O224       Cr230   1.990       .  S
O224        C225   1.261       .  A
C225        O226   1.264       .  A
C225        C290   1.448       .  S
O226       Cr231   2.013       .  S
O227       Cr231   1.990       .  S
O227        C228   1.261       .  A
C228        C284   1.448       .  S
Cr229       O232   1.784       .  S
Cr230       O232   1.783       .  S
Cr231       O232   1.784       .  S
C233        C301   1.451       .  S
C233        C234   1.410       .  A
C233        C238   1.403       .  A
C234        C235   1.410       .  A
C234        H239   1.084       .  S
C235        C280   1.453       .  S
C235        C236   1.405       .  A
C236        C237   1.403       .  A
C236        H240   1.085       .  S
C237        C273   1.447       .  S
C237        C238   1.401       .  A
C238        H241   1.085       .  S
C242        C272   1.447       .  S
C242       C1155   1.404   1_445  A
C242        C247   1.404       .  A
C243       C1154   1.404       .  A
C243        C244   1.404       .  A
C243        H248   1.084       .  S
C244        C274   1.447       .  S
C244        C245   1.404       .  A
C245       C1158   1.404       .  A
C245        H249   1.084       .  S
C246        C270   1.447       .  S
C246       C1157   1.404   1_455  A
C246        C247   1.404   1_565  A
C247        H250   1.084       .  S
C251        C300   1.451       .  S
C251        C860   1.410       .  A
C251        C256   1.403       .  A
C252        C859   1.410       .  A
C252        C253   1.409   1_655  A
C252        H257   1.084       .  S
C253        C276   1.453       .  S
C253        C254   1.405       .  A
C254        C255   1.403   1_455  A
C254        H258   1.085       .  S
C255        C271   1.447       .  S
C255        C864   1.401       .  A
C256        C863   1.401       .  A
C256        H259   1.085       .  S
C260        C278   1.453       .  S
C260        C261   1.409       .  A
C260        C265   1.405       .  A
C261        C566   1.410       .  A
C261        H266   1.084       .  S
C262        C296   1.451       .  S
C262        C565   1.410       .  A
C262        C263   1.403       .  A
C263        C568   1.401       .  A
C263        H267   1.085       .  S
C264        C269   1.447       .  S
C264        C567   1.401       .  A
C264        C265   1.403       .  A
C265        H268   1.085       .  S
C269        C574   1.210       .  T
C270        C573   1.210       .  T
C271        C272   1.210   1_655  T
C273        C274   1.210       .  T
C275        C276   1.214       .  T
C277        C278   1.214       .  T
C279        C280   1.214       .  T
C281        C282   1.213       .  T
C283        C284   1.213       .  T
C285        C286   1.210       .  T
C287        C288   1.210       .  T
C289        C290   1.213       .  T
C291        C292   1.210       .  T
C293        C294   1.214       .  T
C295        C296   1.213       .  T
C297        C298   1.214       .  T
C299        C300   1.213       .  T
C301        C302   1.213       .  T
C303        C304   1.214       .  T
O305       Cr323   2.014       .  S
O305        C313   1.265       .  A
O306       Cr323   1.988       .  S
O306        C307   1.261       .  A
C307        O308   1.265       .  A
C307        C451   1.447       .  S
O308       Cr324   2.014       .  S
O309       Cr324   1.989       .  S
O309        C310   1.261       .  A
C310        O311   1.265       .  A
C310        C454   1.447       .  S
O311       Cr325   2.014       .  S
O312       Cr325   1.988       .  S
O312        C313   1.261       .  A
C313        C447   1.447       .  S
O314       Cr323   1.990       .  S
O314        C322   1.261       .  A
O315       Cr323   2.015       .  S
O315        C316   1.266       .  A
C316        O317   1.261       .  A
C316        C450   1.449       .  S
O317       Cr324   1.991       .  S
O318       Cr324   2.015       .  S
O318        C319   1.266       .  A
C319        O320   1.261       .  A
C319        C455   1.449       .  S
O320       Cr325   1.991       .  S
O321       Cr325   2.015       .  S
O321        C322   1.266       .  A
C322        C445   1.449       .  S
Cr323       O326   1.782       .  S
Cr324       O326   1.782       .  S
Cr325       O326   1.782       .  S
C327        C441   1.452       .  S
C327        C328   1.403       .  A
C327        C332   1.410       .  A
C328        C329   1.401       .  A
C328        H333   1.085       .  S
C329        C596   1.446   1_554  S
C329        C482   1.402   1_554  A
C330        C481   1.402       .  A
C330        C331   1.405       .  A
C330        H334   1.085       .  S
C331        C456   1.454       .  S
C331        C484   1.410       .  A
C332        C483   1.410   1_554  A
C332        H335   1.084       .  S
C336        C437   1.446       .  S
C336        C949   1.404   1_545  A
C337        C946   1.404   1_455  A
C337        H342   1.084       .  S
C338        C440   1.446       .  S
C338        C945   1.404       .  A
C339        C340   1.404       .  A
C339        H343   1.084       .  S
C340        C443   1.446       .  S
C340        C341   1.403       .  A
C341        C944   1.404   1_565  A
C341        H344   1.084       .  S
C345        C449   1.453       .  S
C345        C498   1.410       .  A
C345        C350   1.405       .  A
C346        C497   1.410   1_554  A
C346        C955   1.410       .  A
C346        H351   1.084       .  S
C347        C435   1.452       .  S
C347        C954   1.410       .  A
C347        C348   1.403       .  A
C348        C957   1.401   1_454  A
C348        H352   1.085       .  S
C349        C591   1.446       .  S
C349        C956   1.401   1_556  A
C349        C502   1.402       .  A
C350        C501   1.402       .  A
C350        H353   1.085       .  S
C354        C433   1.452       .  S
C354        C507   1.410       .  A
C354        C359   1.403       .  A
C355        C506   1.410       .  A
C355        H360   1.084       .  S
C356        C446   1.453       .  S
C356        C357   1.405       .  A
C357        H361   1.085       .  S
C358        C438   1.446       .  S
C358        C511   1.401   1_545  A
C359        C510   1.401   1_565  A
C359        H362   1.085       .  S
O363       Cr381   1.992       .  S
O363        C371   1.262       .  A
O364       Cr381   2.012       .  S
O364        C365   1.265       .  A
C365        O366   1.262       .  A
C365        C429   1.449       .  S
O366       Cr382   1.993       .  S
O367       Cr382   2.013       .  S
O367        C368   1.265       .  A
C368        O369   1.262       .  A
C368        C431   1.449       .  S
O369       Cr383   1.992       .  S
O370       Cr383   2.012       .  S
O370        C371   1.265       .  A
C371        C427   1.448       .  S
O372       Cr381   2.013       .  S
O372        C380   1.264       .  A
O373       Cr381   1.989       .  S
O373        C374   1.261       .  A
C374        O375   1.264       .  A
C374        C434   1.448       .  S
O375       Cr382   2.014       .  S
O376       Cr382   1.990       .  S
O376        C377   1.261       .  A
C377        O378   1.264       .  A
C377        C442   1.448       .  S
O378       Cr383   2.013       .  S
O379       Cr383   1.990       .  S
O379        C380   1.261       .  A
C380        C436   1.447       .  S
Cr381       O384   1.783       .  S
Cr382       O384   1.783       .  S
Cr383       O384   1.783       .  S
C385        C453   1.451       .  S
C385        C386   1.410       .  A
C385        C390   1.403       .  A
C386        C387   1.410       .  A
C386        H391   1.084       .  S
C387        C432   1.453       .  S
C387        C388   1.405       .  A
C388        C389   1.403       .  A
C388        H392   1.085       .  S
C389        C425   1.447       .  S
C389        C390   1.401       .  A
C390        H393   1.085       .  S
C394        C424   1.447       .  S
C394        C699   1.404   1_455  A
C394        C399   1.404       .  A
C395        C698   1.404   1_565  A
C395        C396   1.404       .  A
C395        H400   1.084   1_565  S
C396        C426   1.446       .  S
C396        C397   1.404       .  A
C397        C702   1.404       .  A
C397        H401   1.084       .  S
C398        C422   1.447       .  S
C398        C701   1.404   1_455  A
C398        C399   1.404       .  A
C399        H402   1.084       .  S
C403        C452   1.451       .  S
C403       C1012   1.410       .  A
C403        C408   1.403       .  A
C404       C1011   1.410       .  A
C404        C405   1.409   1_655  A
C404        H409   1.084       .  S
C405        C428   1.453       .  S
C405        C406   1.405       .  A
C406        C407   1.403   1_455  A
C406        H410   1.085       .  S
C407        C423   1.447       .  S
C407       C1016   1.401       .  A
C408       C1015   1.401       .  A
C408        H411   1.085       .  S
C412        C430   1.453       .  S
C412        C413   1.409   1_565  A
C412        C417   1.405       .  A
C413        H418   1.084       .  S
C414        C448   1.451       .  S
C414        C415   1.403       .  A
C415        H419   1.085       .  S
C416        C421   1.447   1_545  S
C416        C417   1.403   1_545  A
C417        H420   1.085       .  S
C423        C424   1.210   1_655  T
C425        C426   1.210       .  T
C427        C428   1.214       .  T
C429        C430   1.214       .  T
C431        C432   1.214       .  T
C433        C434   1.213       .  T
C435        C436   1.213       .  T
C437        C438   1.210       .  T
C439        C501   1.446       .  S
C439        C440   1.210       .  T
C441        C442   1.213       .  T
C443        C444   1.210       .  T
C444        C481   1.446       .  S
C445        C446   1.214       .  T
C447        C448   1.213       .  T
C449        C450   1.214       .  T
C451        C452   1.213       .  T
C453        C454   1.213       .  T
C455        C456   1.214       .  T
O457       Cr475   2.014       .  S
O457        C465   1.265       .  A
O458       Cr475   1.988       .  S
O458        C459   1.261       .  A
C459        O460   1.265       .  A
C459        C603   1.447       .  S
O460       Cr476   2.014       .  S
O461       Cr476   1.989       .  S
O461        C462   1.261       .  A
C462        O463   1.265       .  A
C462        C606   1.447       .  S
O463       Cr477   2.014       .  S
O464       Cr477   1.988       .  S
O464        C465   1.261       .  A
C465        C599   1.447       .  S
O466       Cr475   1.990       .  S
O466        C474   1.261       .  A
O467       Cr475   2.015       .  S
O467        C468   1.266       .  A
C468        O469   1.261       .  A
C468        C602   1.449       .  S
O469       Cr476   1.991       .  S
O470       Cr476   2.015       .  S
O470        C471   1.266       .  A
C471        O472   1.261       .  A
C471        C607   1.449       .  S
O472       Cr477   1.991       .  S
O473       Cr477   2.015       .  S
O473        C474   1.266       .  A
C474        C597   1.449       .  S
Cr475       O478   1.782       .  S
Cr476       O478   1.782       .  S
Cr477       O478   1.782       .  S
C479        C593   1.452       .  S
C479        C480   1.403       .  A
C479        C484   1.410       .  A
C480        C481   1.401       .  A
C480        H485   1.085       .  S
C482        C483   1.405       .  A
C482        H486   1.085       .  S
C483        C608   1.453       .  S
C484        H487   1.084       .  S
C488        C589   1.446       .  S
C488       C1101   1.404   1_545  A
C489       C1098   1.404   1_455  A
C489        H494   1.084       .  S
C490        C592   1.446       .  S
C490       C1097   1.404       .  A
C491        C492   1.404       .  A
C491        H495   1.084       .  S
C492        C595   1.446       .  S
C492        C493   1.403       .  A
C493       C1096   1.404   1_565  A
C493        H496   1.084       .  S
C497        C601   1.453       .  S
C497        C502   1.405       .  A
C498       C1107   1.410       .  A
C498        H503   1.084       .  S
C499        C587   1.452       .  S
C499       C1106   1.410       .  A
C499        C500   1.403       .  A
C500       C1109   1.401   1_455  A
C500        H504   1.085       .  S
C501       C1108   1.401       .  A
C502        H505   1.085       .  S
C506        C585   1.452       .  S
C506        C511   1.403       .  A
C507        H512   1.084       .  S
C508        C598   1.453       .  S
C508        C509   1.405       .  A
C509        H513   1.085       .  S
C510        C590   1.446   1_554  S
C511        H514   1.085       .  S
O515       Cr533   1.992       .  S
O515        C523   1.262       .  A
O516       Cr533   2.012       .  S
O516        C517   1.265       .  A
C517        O518   1.262       .  A
C517        C581   1.449       .  S
O518       Cr534   1.993       .  S
O519       Cr534   2.013       .  S
O519        C520   1.265       .  A
C520        O521   1.262       .  A
C520        C583   1.449       .  S
O521       Cr535   1.993       .  S
O522       Cr535   2.012       .  S
O522        C523   1.265       .  A
C523        C579   1.448       .  S
O524       Cr533   2.014       .  S
O524        C532   1.264       .  A
O525       Cr533   1.990       .  S
O525        C526   1.261       .  A
C526        O527   1.264       .  A
C526        C586   1.448       .  S
O527       Cr534   2.014       .  S
O528       Cr534   1.990       .  S
O528        C529   1.261       .  A
C529        O530   1.264       .  A
C529        C594   1.448       .  S
O530       Cr535   2.013       .  S
O531       Cr535   1.990       .  S
O531        C532   1.261       .  A
C532        C588   1.448       .  S
Cr533       O536   1.784       .  S
Cr534       O536   1.783       .  S
Cr535       O536   1.784       .  S
C537        C605   1.451       .  S
C537        C538   1.410       .  A
C537        C542   1.403       .  A
C538        C539   1.410       .  A
C538        H543   1.084       .  S
C539        C584   1.453       .  S
C539        C540   1.405       .  A
C540        C541   1.403       .  A
C540        H544   1.085       .  S
C541        C577   1.447       .  S
C541        C542   1.401       .  A
C542        H545   1.085       .  S
C546        C576   1.447       .  S
C546        C851   1.404   1_455  A
C546        C551   1.404       .  A
C547        C850   1.404   1_565  A
C547        C548   1.404       .  A
C547        H552   1.084   1_565  S
C548        C578   1.447       .  S
C548        C549   1.404       .  A
C549        C854   1.404       .  A
C549        H553   1.084       .  S
C550        C574   1.447       .  S
C550        C853   1.404   1_455  A
C550        C551   1.404       .  A
C551        H554   1.084       .  S
C555        C604   1.451       .  S
C555       C1164   1.410       .  A
C555        C560   1.403       .  A
C556       C1163   1.410       .  A
C556        C557   1.409   1_655  A
C556        H561   1.084       .  S
C557        C580   1.453       .  S
C557        C558   1.405       .  A
C558        C559   1.403   1_455  A
C558        H562   1.085       .  S
C559        C575   1.447       .  S
C559       C1168   1.401       .  A
C560       C1167   1.401       .  A
C560        H563   1.085       .  S
C564        C582   1.453       .  S
C564        C565   1.409   1_565  A
C564        C569   1.405       .  A
C565        H570   1.084       .  S
C566        C600   1.451       .  S
C566        C567   1.403       .  A
C567        H571   1.085       .  S
C568        C573   1.447   1_545  S
C568        C569   1.403   1_545  A
C569        H572   1.085       .  S
C575        C576   1.210   1_655  T
C577        C578   1.210       .  T
C579        C580   1.214       .  T
C581        C582   1.214       .  T
C583        C584   1.214       .  T
C585        C586   1.213       .  T
C587        C588   1.213       .  T
C589        C590   1.210       .  T
C591        C592   1.210       .  T
C593        C594   1.213       .  T
C595        C596   1.210       .  T
C597        C598   1.214       .  T
C599        C600   1.213       .  T
C601        C602   1.214       .  T
C603        C604   1.213       .  T
C605        C606   1.213       .  T
C607        C608   1.214       .  T
O609       Cr627   2.014       .  S
O609        C617   1.265       .  A
O610       Cr627   1.988       .  S
O610        C611   1.261       .  A
C611        O612   1.265       .  A
C611        C755   1.447       .  S
O612       Cr628   2.014       .  S
O613       Cr628   1.989       .  S
O613        C614   1.261       .  A
C614        O615   1.265       .  A
C614        C758   1.447       .  S
O615       Cr629   2.014       .  S
O616       Cr629   1.988       .  S
O616        C617   1.261       .  A
C617        C751   1.447       .  S
O618       Cr627   1.990       .  S
O618        C626   1.261       .  A
O619       Cr627   2.015       .  S
O619        C620   1.266       .  A
C620        O621   1.261       .  A
C620        C754   1.449       .  S
O621       Cr628   1.991       .  S
O622       Cr628   2.015       .  S
O622        C623   1.266       .  A
C623        O624   1.261       .  A
C623        C759   1.449       .  S
O624       Cr629   1.991       .  S
O625       Cr629   2.015       .  S
O625        C626   1.266       .  A
C626        C749   1.449       .  S
Cr627       O630   1.782       .  S
Cr628       O630   1.782       .  S
Cr629       O630   1.782       .  S
C631        C745   1.452       .  S
C631        C632   1.403       .  A
C631        C636   1.410       .  A
C632        C633   1.401       .  A
C632        H637   1.085       .  S
C633        C900   1.446   1_554  S
C633        C786   1.402   1_554  A
C634        C785   1.402       .  A
C634        C635   1.405       .  A
C634        H638   1.085       .  S
C635        C760   1.454       .  S
C635        C788   1.410       .  A
C636        C787   1.410   1_554  A
C636        H639   1.084       .  S
C640        C741   1.446       .  S
C640        C945   1.404       .  A
C641        C944   1.404       .  A
C641        H646   1.084       .  S
C642        C744   1.446       .  S
C642        C947   1.404   1_545  A
C643        C946   1.404       .  A
C643        C644   1.404       .  A
C643        H647   1.084       .  S
C644        C747   1.446       .  S
C644        C645   1.403   1_655  A
C645        H648   1.084       .  S
C649        C753   1.453       .  S
C649        C802   1.410   1_655  A
C649        C654   1.405       .  A
C650        C801   1.410   1_454  A
C650        H655   1.084       .  S
C651        C739   1.452       .  S
C651        C652   1.403       .  A
C652        H656   1.085       .  S
C653        C895   1.446       .  S
C653        C806   1.402       .  A
C654        C805   1.402       .  A
C654        H657   1.085       .  S
C658        C737   1.452       .  S
C658        C811   1.410       .  A
C658        C663   1.403       .  A
C659        C810   1.410       .  A
C659        C964   1.410       .  A
C659        H664   1.084       .  S
C660        C750   1.453       .  S
C660        C963   1.410   1_545  A
C660        C661   1.405       .  A
C661        C966   1.402       .  A
C661        H665   1.085       .  S
C662        C742   1.446       .  S
C662        C965   1.402       .  A
C662        C815   1.401       .  A
C663        C814   1.401       .  A
C663        H666   1.085       .  S
O667       Cr685   1.992       .  S
O667        C675   1.262       .  A
O668       Cr685   2.012       .  S
O668        C669   1.265       .  A
C669        O670   1.262       .  A
C669        C733   1.449       .  S
O670       Cr686   1.993       .  S
O671       Cr686   2.013       .  S
O671        C672   1.265       .  A
C672        O673   1.262       .  A
C672        C735   1.449       .  S
O673       Cr687   1.992       .  S
O674       Cr687   2.012       .  S
O674        C675   1.265       .  A
C675        C731   1.448       .  S
O676       Cr685   2.013       .  S
O676        C684   1.264       .  A
O677       Cr685   1.989       .  S
O677        C678   1.261       .  A
C678        O679   1.264       .  A
C678        C738   1.448       .  S
O679       Cr686   2.014       .  S
O680       Cr686   1.990       .  S
O680        C681   1.261       .  A
C681        O682   1.264       .  A
C681        C746   1.448       .  S
O682       Cr687   2.013       .  S
O683       Cr687   1.990       .  S
O683        C684   1.261       .  A
C684        C740   1.447       .  S
Cr685       O688   1.783       .  S
Cr686       O688   1.783       .  S
Cr687       O688   1.783       .  S
C689        C757   1.451       .  S
C689        C690   1.410       .  A
C689        C694   1.403       .  A
C690        C691   1.410       .  A
C690        H695   1.084       .  S
C691        C736   1.453       .  S
C691        C692   1.405       .  A
C692        C693   1.403       .  A
C692        H696   1.085       .  S
C693        C729   1.447       .  S
C693        C694   1.401       .  A
C694        H697   1.085       .  S
C698        C728   1.447       .  S
C698        C703   1.404       .  A
C699        C700   1.404       .  A
C699        H704   1.084       .  S
C700        C730   1.446       .  S
C700        C701   1.404       .  A
C701        H705   1.084       .  S
C702        C726   1.447       .  S
C702        C703   1.404   1_565  A
C703        H706   1.084       .  S
C707        C756   1.451       .  S
C707        C712   1.403       .  A
C708        C709   1.409       .  A
C708        H713   1.084       .  S
C709        C732   1.453       .  S
C709        C710   1.405       .  A
C710        C711   1.403       .  A
C710        H714   1.085       .  S
C711        C727   1.447       .  S
C712        H715   1.085       .  S
C716        C734   1.453       .  S
C716        C717   1.409       .  A
C716        C721   1.405       .  A
C717       C1022   1.410       .  A
C717        H722   1.084       .  S
C718        C752   1.451       .  S
C718       C1021   1.410       .  A
C718        C719   1.403       .  A
C719       C1024   1.401       .  A
C719        H723   1.085       .  S
C720        C725   1.447       .  S
C720       C1023   1.401       .  A
C720        C721   1.403       .  A
C721        H724   1.085       .  S
C725       C1030   1.210       .  T
C726       C1029   1.210       .  T
C727        C728   1.210       .  T
C729        C730   1.210       .  T
C731        C732   1.214       .  T
C733        C734   1.214       .  T
C735        C736   1.214       .  T
C737        C738   1.213       .  T
C739        C740   1.213       .  T
C741        C742   1.210       .  T
C743        C805   1.446       .  S
C743        C744   1.210       .  T
C745        C746   1.213       .  T
C747        C748   1.210       .  T
C748        C785   1.446       .  S
C749        C750   1.214       .  T
C751        C752   1.213       .  T
C753        C754   1.214       .  T
C755        C756   1.213       .  T
C757        C758   1.213       .  T
C759        C760   1.214       .  T
O761       Cr779   2.014       .  S
O761        C769   1.265       .  A
O762       Cr779   1.988       .  S
O762        C763   1.261       .  A
C763        O764   1.265       .  A
C763        C907   1.447       .  S
O764       Cr780   2.014       .  S
O765       Cr780   1.989       .  S
O765        C766   1.261       .  A
C766        O767   1.265       .  A
C766        C910   1.447       .  S
O767       Cr781   2.014       .  S
O768       Cr781   1.988       .  S
O768        C769   1.261       .  A
C769        C903   1.447       .  S
O770       Cr779   1.990       .  S
O770        C778   1.261       .  A
O771       Cr779   2.015       .  S
O771        C772   1.266       .  A
C772        O773   1.261       .  A
C772        C906   1.449       .  S
O773       Cr780   1.991       .  S
O774       Cr780   2.015       .  S
O774        C775   1.266       .  A
C775        O776   1.261       .  A
C775        C911   1.449       .  S
O776       Cr781   1.991       .  S
O777       Cr781   2.015       .  S
O777        C778   1.266       .  A
C778        C901   1.449       .  S
Cr779       O782   1.782       .  S
Cr780       O782   1.782       .  S
Cr781       O782   1.782       .  S
C783        C897   1.452       .  S
C783        C784   1.403       .  A
C783        C788   1.410       .  A
C784        C785   1.401       .  A
C784        H789   1.085       .  S
C786        C787   1.405       .  A
C786        H790   1.085       .  S
C787        C912   1.453       .  S
C788        H791   1.084       .  S
C792        C893   1.446       .  S
C792       C1097   1.404       .  A
C793       C1096   1.404       .  A
C793        H798   1.084       .  S
C794        C896   1.446       .  S
C794       C1099   1.403   1_545  A
C795       C1098   1.403       .  A
C795        C796   1.404       .  A
C795        H799   1.084       .  S
C796        C899   1.446       .  S
C796        C797   1.403   1_655  A
C797        H800   1.084       .  S
C801        C905   1.453       .  S
C801        C806   1.405       .  A
C802        H807   1.084       .  S
C803        C891   1.452       .  S
C803        C804   1.403       .  A
C804        H808   1.085       .  S
C806        H809   1.085       .  S
C810        C889   1.452       .  S
C810        C815   1.403       .  A
C811       C1116   1.410   1_554  A
C811        H816   1.084       .  S
C812        C902   1.453       .  S
C812       C1115   1.410   1_546  A
C812        C813   1.405       .  A
C813       C1118   1.402   1_556  A
C813        H817   1.085       .  S
C814        C894   1.446   1_554  S
C814       C1117   1.402   1_554  A
C815        H818   1.085       .  S
O819       Cr837   1.992       .  S
O819        C827   1.262       .  A
O820       Cr837   2.012       .  S
O820        C821   1.265       .  A
C821        O822   1.262       .  A
C821        C885   1.449       .  S
O822       Cr838   1.993       .  S
O823       Cr838   2.013       .  S
O823        C824   1.265       .  A
C824        O825   1.262       .  A
C824        C887   1.449       .  S
O825       Cr839   1.993       .  S
O826       Cr839   2.012       .  S
O826        C827   1.265       .  A
C827        C883   1.448       .  S
O828       Cr837   2.014       .  S
O828        C836   1.264       .  A
O829       Cr837   1.990       .  S
O829        C830   1.261       .  A
C830        O831   1.264       .  A
C830        C890   1.448       .  S
O831       Cr838   2.014       .  S
O832       Cr838   1.990       .  S
O832        C833   1.261       .  A
C833        O834   1.264       .  A
C833        C898   1.448       .  S
O834       Cr839   2.013       .  S
O835       Cr839   1.990       .  S
O835        C836   1.261       .  A
C836        C892   1.448       .  S
Cr837       O840   1.784       .  S
Cr838       O840   1.783       .  S
Cr839       O840   1.784       .  S
C841        C909   1.451       .  S
C841        C842   1.410       .  A
C841        C846   1.403       .  A
C842        C843   1.410       .  A
C842        H847   1.084       .  S
C843        C888   1.453       .  S
C843        C844   1.405       .  A
C844        C845   1.403       .  A
C844        H848   1.085       .  S
C845        C881   1.447       .  S
C845        C846   1.401       .  A
C846        H849   1.085       .  S
C850        C880   1.447       .  S
C850        C855   1.404       .  A
C851        C852   1.404       .  A
C851        H856   1.084       .  S
C852        C882   1.447       .  S
C852        C853   1.404       .  A
C853        H857   1.084       .  S
C854        C878   1.447       .  S
C854        C855   1.404   1_565  A
C855        H858   1.084       .  S
C859        C908   1.451       .  S
C859        C864   1.403       .  A
C860        C861   1.409       .  A
C860        H865   1.084       .  S
C861        C884   1.453       .  S
C861        C862   1.405       .  A
C862        C863   1.403       .  A
C862        H866   1.085       .  S
C863        C879   1.447       .  S
C864        H867   1.085       .  S
C868        C886   1.453       .  S
C868        C869   1.409       .  A
C868        C873   1.405       .  A
C869       C1174   1.410       .  A
C869        H874   1.084       .  S
C870        C904   1.451       .  S
C870       C1173   1.410       .  A
C870        C871   1.403       .  A
C871       C1176   1.401       .  A
C871        H875   1.085       .  S
C872        C877   1.447       .  S
C872       C1175   1.401       .  A
C872        C873   1.403       .  A
C873        H876   1.085       .  S
C877       C1182   1.210       .  T
C878       C1181   1.210       .  T
C879        C880   1.210       .  T
C881        C882   1.210       .  T
C883        C884   1.214       .  T
C885        C886   1.214       .  T
C887        C888   1.214       .  T
C889        C890   1.213       .  T
C891        C892   1.213       .  T
C893        C894   1.210       .  T
C895        C896   1.210       .  T
C897        C898   1.213       .  T
C899        C900   1.210       .  T
C901        C902   1.214       .  T
C903        C904   1.213       .  T
C905        C906   1.214       .  T
C907        C908   1.213       .  T
C909        C910   1.213       .  T
C911        C912   1.214       .  T
O913       Cr931   2.014       .  S
O913        C921   1.265       .  A
O914       Cr931   1.988       .  S
O914        C915   1.261       .  A
C915        O916   1.265       .  A
C915       C1059   1.447       .  S
O916       Cr932   2.014       .  S
O917       Cr932   1.989       .  S
O917        C918   1.261       .  A
C918        O919   1.265       .  A
C918       C1062   1.447       .  S
O919       Cr933   2.014       .  S
O920       Cr933   1.988       .  S
O920        C921   1.261       .  A
C921       C1055   1.447       .  S
O922       Cr931   1.990       .  S
O922        C930   1.261       .  A
O923       Cr931   2.015       .  S
O923        C924   1.266       .  A
C924        O925   1.261       .  A
C924       C1058   1.449       .  S
O925       Cr932   1.991       .  S
O926       Cr932   2.015       .  S
O926        C927   1.266       .  A
C927        O928   1.261       .  A
C927       C1063   1.449       .  S
O928       Cr933   1.991       .  S
O929       Cr933   2.015       .  S
O929        C930   1.266       .  A
C930       C1053   1.449       .  S
Cr931       O934   1.782       .  S
Cr932       O934   1.782       .  S
Cr933       O934   1.782       .  S
C935       C1049   1.452       .  S
C935        C936   1.403       .  A
C935        C940   1.410       .  A
C936        C937   1.401       .  A
C936        H941   1.085       .  S
C937       C1204   1.446   1_554  S
C937       C1090   1.402   1_554  A
C938       C1089   1.402       .  A
C938        C939   1.405       .  A
C938        H942   1.085       .  S
C939       C1064   1.454       .  S
C939       C1092   1.410       .  A
C940       C1091   1.410   1_554  A
C940        H943   1.084       .  S
C944       C1045   1.446       .  S
C945        H950   1.084       .  S
C946       C1048   1.446       .  S
C947        C948   1.404       .  A
C947        H951   1.084       .  S
C948       C1051   1.446       .  S
C948        C949   1.403   1_655  A
C949        H952   1.084       .  S
C953       C1057   1.453       .  S
C953       C1106   1.410   1_655  A
C953        C958   1.405       .  A
C954       C1105   1.410   1_454  A
C954        H959   1.084       .  S
C955       C1043   1.452       .  S
C955        C956   1.403       .  A
C956        H960   1.085       .  S
C957       C1199   1.446       .  S
C957       C1110   1.402       .  A
C958       C1109   1.402       .  A
C958        H961   1.085       .  S
C962       C1041   1.452       .  S
C962       C1115   1.410       .  A
C962        C967   1.403       .  A
C963       C1114   1.410       .  A
C963        H968   1.084       .  S
C964       C1054   1.453       .  S
C964        C965   1.405       .  A
C965        H969   1.085       .  S
C966       C1046   1.446       .  S
C966       C1119   1.401   1_545  A
C967       C1118   1.401   1_565  A
C967        H970   1.085       .  S
O971       Cr989   1.992       .  S
O971        C979   1.262       .  A
O972       Cr989   2.012       .  S
O972        C973   1.265       .  A
C973        O974   1.262       .  A
C973       C1037   1.449       .  S
O974       Cr990   1.993       .  S
O975       Cr990   2.013       .  S
O975        C976   1.265       .  A
C976        O977   1.262       .  A
C976       C1039   1.449       .  S
O977       Cr991   1.992       .  S
O978       Cr991   2.012       .  S
O978        C979   1.265       .  A
C979       C1035   1.448       .  S
O980       Cr989   2.013       .  S
O980        C988   1.264       .  A
O981       Cr989   1.989       .  S
O981        C982   1.261       .  A
C982        O983   1.264       .  A
C982       C1042   1.448       .  S
O983       Cr990   2.014       .  S
O984       Cr990   1.990       .  S
O984        C985   1.261       .  A
C985        O986   1.264       .  A
C985       C1050   1.448       .  S
O986       Cr991   2.013       .  S
O987       Cr991   1.990       .  S
O987        C988   1.261       .  A
C988       C1044   1.447       .  S
Cr989       O992   1.783       .  S
Cr990       O992   1.783       .  S
Cr991       O992   1.783       .  S
C993       C1061   1.451       .  S
C993        C994   1.410       .  A
C993        C998   1.403       .  A
C994        C995   1.410       .  A
C994        H999   1.084       .  S
C995       C1040   1.453       .  S
C995        C996   1.405       .  A
C996        C997   1.403       .  A
C996       H1000   1.085       .  S
C997       C1033   1.447       .  S
C997        C998   1.401       .  A
C998       H1001   1.085       .  S
C1002      C1032   1.447       .  S
C1002      C1007   1.404       .  A
C1003      C1004   1.404       .  A
C1003      H1008   1.084   1_565  S
C1004      C1034   1.446       .  S
C1004      C1005   1.404       .  A
C1005      H1009   1.084       .  S
C1006      C1030   1.447       .  S
C1006      C1007   1.404       .  A
C1007      H1010   1.084       .  S
C1011      C1060   1.451       .  S
C1011      C1016   1.403       .  A
C1012      C1013   1.409       .  A
C1012      H1017   1.084       .  S
C1013      C1036   1.453       .  S
C1013      C1014   1.405       .  A
C1014      C1015   1.403       .  A
C1014      H1018   1.085       .  S
C1015      C1031   1.447       .  S
C1016      H1019   1.085       .  S
C1020      C1038   1.453       .  S
C1020      C1021   1.409   1_565  A
C1020      C1025   1.405       .  A
C1021      H1026   1.084       .  S
C1022      C1056   1.451       .  S
C1022      C1023   1.403       .  A
C1023      H1027   1.085       .  S
C1024      C1029   1.447   1_545  S
C1024      C1025   1.403   1_545  A
C1025      H1028   1.085       .  S
C1031      C1032   1.210       .  T
C1033      C1034   1.210       .  T
C1035      C1036   1.214       .  T
C1037      C1038   1.214       .  T
C1039      C1040   1.214       .  T
C1041      C1042   1.213       .  T
C1043      C1044   1.213       .  T
C1045      C1046   1.210       .  T
C1047      C1109   1.446       .  S
C1047      C1048   1.210       .  T
C1049      C1050   1.213       .  T
C1051      C1052   1.210       .  T
C1052      C1089   1.446       .  S
C1053      C1054   1.214       .  T
C1055      C1056   1.213       .  T
C1057      C1058   1.214       .  T
C1059      C1060   1.213       .  T
C1061      C1062   1.213       .  T
C1063      C1064   1.214       .  T
O1065     Cr1083   2.014       .  S
O1065      C1073   1.265       .  A
O1066     Cr1083   1.988       .  S
O1066      C1067   1.261       .  A
C1067      O1068   1.265       .  A
C1067      C1211   1.447       .  S
O1068     Cr1084   2.014       .  S
O1069     Cr1084   1.989       .  S
O1069      C1070   1.261       .  A
C1070      O1071   1.265       .  A
C1070      C1214   1.447       .  S
O1071     Cr1085   2.014       .  S
O1072     Cr1085   1.988       .  S
O1072      C1073   1.261       .  A
C1073      C1207   1.447       .  S
O1074     Cr1083   1.990       .  S
O1074      C1082   1.261       .  A
O1075     Cr1083   2.015       .  S
O1075      C1076   1.266       .  A
C1076      O1077   1.261       .  A
C1076      C1210   1.449       .  S
O1077     Cr1084   1.991       .  S
O1078     Cr1084   2.015       .  S
O1078      C1079   1.266       .  A
C1079      O1080   1.261       .  A
C1079      C1215   1.449       .  S
O1080     Cr1085   1.991       .  S
O1081     Cr1085   2.015       .  S
O1081      C1082   1.266       .  A
C1082      C1205   1.449       .  S
Cr1083     O1086   1.782       .  S
Cr1084     O1086   1.782       .  S
Cr1085     O1086   1.782       .  S
C1087      C1201   1.452       .  S
C1087      C1088   1.403       .  A
C1087      C1092   1.410       .  A
C1088      C1089   1.401       .  A
C1088      H1093   1.085       .  S
C1090      C1091   1.405       .  A
C1090      H1094   1.085       .  S
C1091      C1216   1.453       .  S
C1092      H1095   1.084       .  S
C1096      C1197   1.446       .  S
C1097      H1102   1.084       .  S
C1098      C1200   1.446       .  S
C1099      C1100   1.404       .  A
C1099      H1103   1.084       .  S
C1100      C1203   1.446       .  S
C1100      C1101   1.403   1_655  A
C1101      H1104   1.084       .  S
C1105      C1209   1.453       .  S
C1105      C1110   1.405       .  A
C1106      H1111   1.084       .  S
C1107      C1195   1.452       .  S
C1107      C1108   1.403       .  A
C1108      H1112   1.085       .  S
C1110      H1113   1.085       .  S
C1114      C1193   1.452       .  S
C1114      C1119   1.403       .  A
C1115      H1120   1.084       .  S
C1116      C1206   1.453       .  S
C1116      C1117   1.405       .  A
C1117      H1121   1.085       .  S
C1118      C1198   1.446   1_554  S
C1119      H1122   1.085       .  S
O1123     Cr1141   1.992       .  S
O1123      C1131   1.262       .  A
O1124     Cr1141   2.012       .  S
O1124      C1125   1.265       .  A
C1125      O1126   1.262       .  A
C1125      C1189   1.449       .  S
O1126     Cr1142   1.993       .  S
O1127     Cr1142   2.013       .  S
O1127      C1128   1.265       .  A
C1128      O1129   1.262       .  A
C1128      C1191   1.449       .  S
O1129     Cr1143   1.992       .  S
O1130     Cr1143   2.012       .  S
O1130      C1131   1.265       .  A
C1131      C1187   1.448       .  S
O1132     Cr1141   2.014       .  S
O1132      C1140   1.264       .  A
O1133     Cr1141   1.990       .  S
O1133      C1134   1.261       .  A
C1134      O1135   1.264       .  A
C1134      C1194   1.448       .  S
O1135     Cr1142   2.014       .  S
O1136     Cr1142   1.990       .  S
O1136      C1137   1.261       .  A
C1137      O1138   1.264       .  A
C1137      C1202   1.448       .  S
O1138     Cr1143   2.013       .  S
O1139     Cr1143   1.990       .  S
O1139      C1140   1.261       .  A
C1140      C1196   1.448       .  S
Cr1141     O1144   1.784       .  S
Cr1142     O1144   1.783       .  S
Cr1143     O1144   1.784       .  S
C1145      C1213   1.451       .  S
C1145      C1146   1.410       .  A
C1145      C1150   1.403       .  A
C1146      C1147   1.410       .  A
C1146      H1151   1.084       .  S
C1147      C1192   1.453       .  S
C1147      C1148   1.405       .  A
C1148      C1149   1.403       .  A
C1148      H1152   1.085       .  S
C1149      C1185   1.447       .  S
C1149      C1150   1.401       .  A
C1150      H1153   1.085       .  S
C1154      C1184   1.447       .  S
C1154      C1159   1.404       .  A
C1155      C1156   1.404       .  A
C1155      H1160   1.084   1_565  S
C1156      C1186   1.447       .  S
C1156      C1157   1.404       .  A
C1157      H1161   1.084       .  S
C1158      C1182   1.447       .  S
C1158      C1159   1.404       .  A
C1159      H1162   1.084       .  S
C1163      C1212   1.451       .  S
C1163      C1168   1.403       .  A
C1164      C1165   1.409       .  A
C1164      H1169   1.084       .  S
C1165      C1188   1.453       .  S
C1165      C1166   1.405       .  A
C1166      C1167   1.403       .  A
C1166      H1170   1.085       .  S
C1167      C1183   1.447       .  S
C1168      H1171   1.085       .  S
C1172      C1190   1.453       .  S
C1172      C1173   1.409   1_565  A
C1172      C1177   1.405       .  A
C1173      H1178   1.084       .  S
C1174      C1208   1.451       .  S
C1174      C1175   1.403       .  A
C1175      H1179   1.085       .  S
C1176      C1181   1.447   1_545  S
C1176      C1177   1.403   1_545  A
C1177      H1180   1.085       .  S
C1183      C1184   1.210       .  T
C1185      C1186   1.210       .  T
C1187      C1188   1.214       .  T
C1189      C1190   1.214       .  T
C1191      C1192   1.214       .  T
C1193      C1194   1.213       .  T
C1195      C1196   1.213       .  T
C1197      C1198   1.210       .  T
C1199      C1200   1.210       .  T
C1201      C1202   1.213       .  T
C1203      C1204   1.210       .  T
C1205      C1206   1.214       .  T
C1207      C1208   1.213       .  T
C1209      C1210   1.214       .  T
C1211      C1212   1.213       .  T
C1213      C1214   1.213       .  T
C1215      C1216   1.214       .  T
