geometry optimzed in LAMMPS
_audit_creation_date              2020-11-30 
_audit_creation_method            'lammps2cif' 
_symmetry_space_group_name_H-M    'P1' 
_symmetry_Int_Tables_number       1 
_symmetry_cell_setting            triclinic 
loop_ 
_symmetry_equiv_pos_as_xyz 
  x,y,z 
_cell_length_a                    48.26342682 
_cell_length_b                    47.033306784410854 
_cell_length_c                    23.79055036870218 
_cell_angle_alpha                 87.53537780089181 
_cell_angle_beta                  85.48126956404786 
_cell_angle_gamma                 119.50191009600333 
loop_ 
_atom_site_label 
_atom_site_type_symbol 
_atom_site_fract_x 
_atom_site_fract_y 
_atom_site_fract_z 
_atom_site_charge 
C1          C  0.30441811  0.32236609  0.13073820     0.86800
C2          C  0.34066309  0.34429108  0.13497508    -0.53400
C3          C  0.35196714  0.37750269  0.12626761     0.09700
C4          C  0.32515685  0.38595270  0.11813334     0.20700
C5          C  0.28933236  0.33509575  0.17637555    -0.54200
C6          C  0.30019618  0.36830628  0.17122602     0.09800
C7          C  0.29908312  0.33468513  0.07458623    -0.53700
C8          C  0.30914405  0.36721427  0.06742180     0.10400
H9          H  0.35593044  0.33496167  0.14685285     0.14900
H10         H  0.33317827  0.41239289  0.11163656     0.00700
H11         H  0.27200263  0.31932211  0.21115807     0.15200
H12         H  0.28647191  0.31818314  0.04325330     0.15000
N13         N  0.25103639  0.41827315  0.35150461    -0.03200
C14         C  0.24026936  0.44035630  0.35351575    -0.00600
C15         C  0.24619716  0.95506921  0.40715915    -0.23500
C16         C  0.25282456  0.43615490  0.43896778    -0.23700
C17         C  0.25883847  0.41642078  0.40494907    -0.00700
H18         H  0.24036458  0.97341786  0.42045798     0.13100
H19         H  0.25761887  0.44003074  0.48224560     0.13100
N20         N  0.16491337  0.21318406  0.34489600    -0.03200
C21         C  0.19751133  0.22771987  0.34494751    -0.00600
C22         C  0.20529290  0.23051178  0.39967760    -0.23500
C23         C  0.17769731  0.21759264  0.43503693    -0.23700
C24         C  0.15347495  0.20804428  0.40097050    -0.00700
H25         H  0.22920102  0.24367703  0.41171460     0.13100
H26         H  0.17564635  0.21803738  0.48057234     0.13100
C27         C  0.02542209  0.18427621  0.15082166     0.86800
C28         C  0.01113397  0.14652755  0.16409490    -0.53400
C29         C  0.03282853  0.13587836  0.15555150     0.09700
C30         C  0.06702770  0.16374253  0.13514822     0.20700
C31         C  0.05266980  0.19828928  0.18953196    -0.54200
C32         C  0.07487376  0.18816719  0.18078076     0.09800
C33         C  0.04222994  0.19148985  0.09033617    -0.53700
C34         C  0.06347753  0.18076982  0.08149702     0.10400
H35         H  0.98654739  0.12944450  0.18093411     0.14900
H36         H  0.08490721  0.15556852  0.12781474     0.00700
H37         H  0.05257685  0.21176795  0.22493936     0.15200
H38         H  0.03715084  0.20380757  0.05627017     0.15000
C39         C  0.15251824  0.44650555  0.09798990     0.86800
C40         C  0.13296575  0.46402869  0.11040285    -0.53400
C41         C  0.10041360  0.44379084  0.11091767     0.09700
C42         C  0.09070483  0.40807085  0.09965595     0.20700
C43         C  0.13682191  0.41758103  0.14495649    -0.54200
C44         C  0.10464879  0.39670570  0.14590527     0.09800
C45         C  0.14210936  0.43182413  0.04251560    -0.53700
C46         C  0.11039008  0.41123234  0.04313948     0.10400
H47         H  0.14269746  0.48896920  0.12058712     0.14900
H48         H  0.06475634  0.39135589  0.09875009     0.00700
H49         H  0.15046655  0.41638107  0.17766975     0.15200
H50         H  0.15886532  0.43869527  0.00463327     0.15000
N51         N  0.53318813  0.30596483  0.38269163    -0.03200
C52         C  0.52405179  0.27384541  0.39582578    -0.00600
C53         C  0.51932864  0.26641605  0.45350541    -0.23500
C54         C  0.52474664  0.29414234  0.47739536    -0.23700
C55         C  0.53466901  0.31857306  0.43356121    -0.00700
H56         H  0.51419648  0.24356683  0.47583366     0.13100
H57         H  0.52694771  0.29752917  0.52185932     0.13100
N58         N  0.05194714  0.48287218  0.14329380    -0.27000
N59         N  0.02958534  0.45234574  0.13853176    -0.34800
C60         C  0.04340058  0.43430287  0.12664413     0.01400
C61         C  0.07626264  0.45413473  0.12378170     0.07400
C62         C  0.08088964  0.48491043  0.13467610    -0.05700
H63         H  0.53109936  0.40843317  0.15486988     0.08100
H64         H  0.10352679  0.50719559  0.13559826     0.09300
Cu65       Cu  0.48252176  0.43705920  0.16269632     0.44200
Cu66       Cu  0.04702299  0.02452441  0.14616696     0.42000
Cu67       Cu  0.46314430  0.00156748  0.13941255     0.43900
N68         N  0.43725036  0.42695156  0.14596664    -0.34400
N69         N  0.43047533  0.45047610  0.13522903    -0.28600
C70         C  0.40010923  0.43671948  0.12254621    -0.04700
C71         C  0.38639864  0.40274132  0.12815085     0.07500
C72         C  0.41110273  0.39761489  0.14220819     0.01300
H73         H  0.38888937  0.45069442  0.11106159     0.08900
H74         H  0.41006310  0.37429971  0.15049390     0.08000
N75         N  0.99805510  0.04749816  0.14771361    -0.35800
N76         N  0.02791589  0.05570824  0.15512606    -0.28000
C77         C  0.04416349  0.08777473  0.16369439    -0.03200
C78         C  0.02381980  0.10061220  0.16101240     0.05400
C79         C  0.99471671  0.07416994  0.15173893     0.03500
H80         H  0.06952477  0.10122143  0.16782624     0.08600
H81         H  0.97328756  0.07483647  0.14448728     0.07400
C82         C  0.32964706  0.28800119  0.29064610     0.86800
C83         C  0.34400345  0.27387676  0.24743272    -0.53400
C84         C  0.37504793  0.28201855  0.25179749     0.09700
C85         C  0.38982805  0.30509013  0.29870569     0.20700
C86         C  0.33582344  0.27773338  0.34858281    -0.54200
C87         C  0.36707140  0.28697822  0.35363097     0.09800
C88         C  0.35333517  0.32525838  0.27925888    -0.53700
C89         C  0.38467763  0.33440960  0.28476210     0.10400
H90         H  0.33125407  0.25968147  0.21407174     0.14900
H91         H  0.41509389  0.31193026  0.30247150     0.00700
H92         H  0.31680083  0.26413854  0.38301807     0.15200
H93         H  0.34623342  0.34289425  0.26686304     0.15000
N94         N  0.42949365  0.24310659  0.06711540    -0.03200
C95         C  0.95044755  0.23116171  0.05627892    -0.00600
C96         C  0.95603081  0.22469697  0.00180173    -0.23500
C97         C  0.43650921  0.23235035  0.47855674    -0.23700
C98         C  0.42286592  0.24633689  0.01313265    -0.00700
H99         H  0.96746628  0.21081452  0.98888597     0.13100
H100        H  0.43395753  0.22977908  0.43415311     0.13100
C101        C  0.18746480  0.01601787  0.28521234     0.86800
C102        C  0.15108869  0.00280067  0.28699641    -0.53400
C103        C  0.14179488  0.02583817  0.29043538     0.09700
C104        C  0.17026425  0.06081775  0.29344836     0.20700
C105        C  0.20182797  0.04334800  0.23543869    -0.54200
C106        C  0.19338497  0.06716561  0.23956684     0.09800
C107        C  0.19570369  0.03417687  0.33929327    -0.53700
C108        C  0.18787267  0.05821764  0.34351434     0.10400
H109        H  0.13314222  0.97790024  0.28541930     0.14900
H110        H  0.16309364  0.07978130  0.29726815     0.00700
H111        H  0.21595909  0.04242997  0.19867091     0.15200
H112        H  0.20541454  0.02687055  0.37280312     0.15000
N113        N  0.21614942  0.16243550  0.05335001    -0.03200
C114        C  0.23370285  0.19617002  0.04855815    -0.00600
C115        C  0.23997610  0.20796994  0.99243142    -0.23500
C116        C  0.22541532  0.18353986  0.46318536    -0.23700
C117        C  0.21103614  0.15374591  0.99914174    -0.00700
H118        H  0.25534764  0.23332111  0.97582343     0.13100
H119        H  0.22676212  0.18469349  0.41748517     0.13100
C120        C  0.45175201  0.14271818  0.33596950     0.86800
C121        C  0.46861497  0.12191369  0.32879013    -0.53400
C122        C  0.44819450  0.08909714  0.32645013     0.09700
C123        C  0.41264733  0.07986624  0.33221536     0.20700
C124        C  0.43221544  0.13437076  0.28545337    -0.54200
C125        C  0.41144293  0.10190412  0.28409306     0.09800
C126        C  0.42725339  0.12559063  0.38933119    -0.53700
C127        C  0.40659773  0.09255995  0.38826432     0.10400
H128        H  0.49426563  0.13201217  0.32092416     0.14900
H129        H  0.39476186  0.55251658  0.33584915     0.00700
H130        H  0.43669733  0.15208196  0.25059378     0.15200
H131        H  0.42673877  0.13880885  0.42536374     0.15000
N132        N  0.31512117  0.52247322  0.09349768    -0.03200
C133        C  0.28668949  0.49367043  0.10638733    -0.00600
C134        C  0.28658918  0.47806001  0.15730339    -0.23500
C135        C  0.31586766  0.49582423  0.17470728    -0.23700
C136        C  0.33256093  0.52282557  0.13602738    -0.00700
H137        H  0.26655853  0.45720550  0.18191645     0.13100
H138        H  0.32314387  0.49152954  0.21457931     0.13100
N139        N  0.45784750  0.41459659  0.28221419    -0.27000
N140        N  0.43559888  0.42320520  0.28771165    -0.34800
C141        C  0.40660095  0.39636360  0.28807975     0.01400
C142        C  0.41053707  0.36939203  0.28143935     0.07400
C143        C  0.44346298  0.38197238  0.27775943    -0.05700
H144        H  0.38421221  0.39627569  0.29549291     0.08100
H145        H  0.45595876  0.36828295  0.27369748     0.09300
Cu146      Cu  0.44588140  0.47116294  0.29586284     0.44200
Cu147      Cu  0.00749787  0.45407324  0.26873253     0.42000
Cu148      Cu  0.02873614  0.03503506  0.28825762     0.43900
N149        N  0.46004501  0.51998146  0.30581604    -0.34400
N150        N  0.48919750  0.04143411  0.30538661    -0.28600
C151        C  0.49008069  0.06994007  0.31454849    -0.04700
C152        C  0.45934231  0.06527205  0.31457392     0.07500
C153        C  0.44084626  0.53308844  0.31085637     0.01300
H154        H  0.51148065  0.09220897  0.32168339     0.08900
H155        H  0.41545209  0.51962413  0.30731763     0.08000
N156        N  0.06252712  0.01927304  0.28519639    -0.35800
N157        N  0.05534139  0.98880318  0.27725994    -0.28000
C158        C  0.08207072  0.98659873  0.27841843    -0.03200
C159        C  0.10755216  0.01705300  0.28756263     0.05400
C160        C  0.09404686  0.03710150  0.29147874     0.03500
H161        H  0.08035014  0.46738711  0.27059478     0.08600
H162        H  0.10619097  0.06277838  0.29866963     0.07400
C163        C  0.36413565  0.08602232  0.46489402    -0.05500
C164        C  0.38064202  0.07191885  0.43678190     0.00500
C165        C  0.37287176  0.03963140  0.45792320    -0.08100
C166        C  0.34767183  0.02276040  0.00253110    -0.05500
C167        C  0.33118566  0.53787430  0.03728220     0.00400
C168        C  0.33778142  0.56752667  0.51586149    -0.08000
C169        C  0.32246188  0.58599657  0.54172078     0.62400
H170        H  0.36939728  0.11040212  0.44953262     0.13100
H171        H  0.34148196  0.99802663  0.01746574     0.13100
C172        C  0.39222083  0.02361960  0.43896968     0.62600
F173        F  0.34599504  0.61699831  0.55131572    -0.22600
F174        F  0.30593478  0.57340777  0.09505611    -0.19900
F175        F  0.30329634  0.58899880  0.50436970    -0.19600
F176        F  0.42442563  0.04656018  0.42933629    -0.19600
F177        F  0.38137653  0.00802970  0.39101639    -0.20000
F178        F  0.39133351  0.00310006  0.98385302    -0.22600
C179        C  0.40617704  0.07085685  0.20128958    -0.05500
C180        C  0.39546784  0.08851149  0.23361817     0.00500
C181        C  0.36894105  0.09115412  0.21937952    -0.08100
C182        C  0.35241665  0.07371419  0.17543956    -0.05500
C183        C  0.36037969  0.05235954  0.14850192     0.00400
C184        C  0.38872756  0.05220160  0.15918742    -0.08000
C185        C  0.40110653  0.03246451  0.12817567     0.62400
H186        H  0.42737517  0.07018859  0.21123803     0.13100
H187        H  0.32856454  0.57138202  0.17561763     0.13100
C188        C  0.35691190  0.11051770  0.25246001     0.62600
F189        F  0.40917784  0.01560303  0.16660552    -0.22600
F190        F  0.42814213  0.05373002  0.09190525    -0.19900
F191        F  0.37948583  0.51168145  0.09834452    -0.19600
F192        F  0.38001321  0.14313625  0.24551158    -0.19600
F193        F  0.35039034  0.09944551  0.30935907    -0.20000
F194        F  0.32480714  0.60217733  0.24742690    -0.22600
C195        C  0.16847406  0.08351306  0.41394976    -0.05500
C196        C  0.19359903  0.07859745  0.39311858     0.00500
C197        C  0.22320026  0.09493801  0.41725890    -0.08100
C198        C  0.22625303  0.11615526  0.45980314    -0.05500
C199        C  0.20182995  0.12297639  0.47720204     0.00400
C200        C  0.17211575  0.10579337  0.45431647    -0.08000
C201        C  0.14215467  0.10967219  0.97028056     0.62400
H202        H  0.14573104  0.07003611  0.39713142     0.13100
H203        H  0.24899108  0.12999745  0.47651630     0.13100
C204        C  0.25265945  0.09286113  0.39576610     0.62600
F205        F  0.11896791  0.09668146  0.93349565    -0.22600
F206        F  0.15264303  0.14282283  0.96895610    -0.19900
F207        F  0.12783072  0.09455057  0.02363541    -0.19600
F208        F  0.25730563  0.09689908  0.33745252    -0.19600
F209        F  0.24921181  0.06297635  0.41428461    -0.20000
F210        F  0.28021876  0.11704364  0.41485587    -0.22600
C211        C  0.17698073  0.10042469  0.18151479    -0.05500
C212        C  0.20154399  0.09393642  0.19327401     0.00500
C213        C  0.23207070  0.11272559  0.16043960    -0.08100
C214        C  0.23568716  0.13498071  0.11488221    -0.05500
C215        C  0.21069365  0.14034778  0.10233101     0.00400
C216        C  0.18088677  0.12317060  0.13692557    -0.08000
C217        C  0.15260169  0.12815304  0.13009902     0.62400
H218        H  0.15375445  0.08670999  0.20633727     0.13100
H219        H  0.25830546  0.14841973  0.08806094     0.13100
C220        C  0.26136990  0.11044052  0.17210258     0.62600
F221        F  0.12478144  0.09806003  0.13302749    -0.22600
F222        F  0.15581880  0.14526522  0.07947287    -0.19900
F223        F  0.14941733  0.14524922  0.17347121    -0.19600
F224        F  0.26212883  0.08600207  0.14308959    -0.19600
F225        F  0.26125537  0.10400277  0.22918282    -0.20000
F226        F  0.28924580  0.13970415  0.15436565    -0.22600
C227        C  0.41343446  0.29008267  0.47914747    -0.05500
C228        C  0.40140202  0.25654249  0.49379534     0.00500
C229        C  0.37390045  0.23358653  0.46972844    -0.08100
C230        C  0.36297899  0.24453616  0.42512267    -0.05500
C231        C  0.37715567  0.27792543  0.40637153     0.00400
C232        C  0.40060279  0.30119954  0.43773893    -0.08000
C233        C  0.41236398  0.33759329  0.42913387     0.62400
H234        H  0.93551254  0.31063909  0.49074517     0.13100
H235        H  0.34357322  0.22663267  0.40390640     0.13100
C236        C  0.35520186  0.19809496  0.98815732     0.62600
F237        F  0.93469946  0.35858514  0.45665147    -0.22600
F238        F  0.38977363  0.34365272  0.40768716    -0.19900
F239        F  0.44045182  0.35279170  0.39275519    -0.19600
F240        F  0.32304898  0.18769856  0.00208119    -0.19600
F241        F  0.36620929  0.19015994  0.03489591    -0.20000
F242        F  0.35834779  0.18139648  0.94387596    -0.22600
C243        C  0.42047332  0.29419440  0.17846182    -0.05500
C244        C  0.39228385  0.27063146  0.21160680     0.00500
C245        C  0.37884408  0.23719971  0.20042695    -0.08100
C246        C  0.39188668  0.22915985  0.15269685    -0.05500
C247        C  0.41894707  0.25292193  0.11761143     0.00400
C248        C  0.43436563  0.28587799  0.13208503    -0.08000
C249        C  0.96919169  0.31853016  0.08918699     0.62400
H250        H  0.43114583  0.31963743  0.18750576     0.13100
H251        H  0.38061028  0.20401739  0.14214089     0.13100
C252        C  0.35037135  0.20945356  0.23721070     0.62600
F253        F  0.99198818  0.33156049  0.12638318    -0.22600
F254        F  0.96424700  0.34319979  0.06736403    -0.19900
F255        F  0.98150615  0.30816643  0.04546769    -0.19600
F256        F  0.35371992  0.18192660  0.24103682    -0.19600
F257        F  0.32257398  0.20167831  0.21335936    -0.20000
F258        F  0.34770168  0.21754483  0.29178908    -0.22600
C259        C  0.50487508  0.19177502  0.35391239    -0.05500
C260        C  0.47354814  0.18021324  0.33896957     0.00500
C261        C  0.46320408  0.20403480  0.33168412    -0.08100
C262        C  0.48476683  0.23726621  0.33790832    -0.05500
C263        C  0.51427936  0.24731664  0.35791946     0.00400
C264        C  0.52521817  0.22457890  0.36332481    -0.08000
C265        C  0.55742587  0.23320758  0.38289288     0.62400
H266        H  0.51342333  0.17500973  0.36304509     0.13100
H267        H  0.47701459  0.25519991  0.33376945     0.13100
C268        C  0.42999216  0.19637503  0.31798792     0.62600
F269        F  0.55256612  0.21576893  0.43448716    -0.22600
F270        F  0.07586209  0.27036894  0.35531154    -0.19900
F271        F  0.57413090  0.22466344  0.34371935    -0.19600
F272        F  0.42217144  0.21920408  0.33715220    -0.19600
F273        F  0.40621916  0.16623925  0.34325425    -0.20000
F274        F  0.42980401  0.19783000  0.25993773    -0.22600
C275        C  0.20051268  0.43987699  0.09277409    -0.05500
C276        C  0.18941359  0.46268832  0.09253637     0.00500
C277        C  0.21269609  0.49625652  0.07587130    -0.08100
C278        C  0.24558709  0.50545422  0.07136522    -0.05500
C279        C  0.25592897  0.48276615  0.08192643     0.00400
C280        C  0.23278896  0.44898679  0.08745426    -0.08000
C281        C  0.24060201  0.42131641  0.09107434     0.62400
H282        H  0.18342123  0.41377853  0.09740337     0.13100
H283        H  0.26349874  0.53105570  0.06267694     0.13100
C284        C  0.20406478  0.52261546  0.06269150     0.62600
F285        F  0.22358833  0.39847451  0.05455602    -0.22600
F286        F  0.23133013  0.40565376  0.14532315    -0.19900
F287        F  0.27283515  0.43221009  0.07663635    -0.19600
F288        F  0.19379528  0.53057753  0.11218775    -0.19600
F289        F  0.18057731  0.51202108  0.02643957    -0.20000
F290        F  0.23018524  0.55114639  0.03653203    -0.22600
C291        C  0.06848064  0.39584314  0.97965859    -0.05500
C292        C  0.09620343  0.39555642  0.99224438     0.00500
C293        C  0.10663659  0.37627596  0.45592143    -0.08100
C294        C  0.08890476  0.36031264  0.41196415    -0.05500
C295        C  0.05857977  0.35648689  0.40749447     0.00400
C296        C  0.54806852  0.37136469  0.47386132    -0.08000
C297        C  0.51893033  0.37287869  0.45857280     0.62400
H298        H  0.56177587  0.40847643  0.03771339     0.13100
H299        H  0.09622697  0.34614428  0.38634290     0.13100
C300        C  0.13606638  0.37322929  0.46445047     0.62600
F301        F  0.51553662  0.39532535  0.99184132    -0.22600
F302        F  0.49265449  0.34177158  0.46122211    -0.19900
F303        F  0.52545527  0.38773855  0.40417386    -0.19600
F304        F  0.13828007  0.36841615  0.52126407    -0.19600
F305        F  0.16330588  0.40117098  0.43982889    -0.20000
F306        F  0.13493446  0.34672541  0.43926291    -0.22600
C307        C  0.05377430  0.36394386  0.21236673    -0.05500
C308        C  0.08462997  0.36959907  0.19291165     0.00500
C309        C  0.09581183  0.35044575  0.22107294    -0.08100
C310        C  0.07810775  0.33048514  0.27118081    -0.05500
C311        C  0.04854457  0.32674068  0.29236335     0.00400
C312        C  0.53537928  0.34039605  0.29675482    -0.08000
C313        C  0.50088292  0.33260713  0.30804101     0.62400
H314        H  0.04415908  0.37732779  0.19097359     0.13100
H315        H  0.08794383  0.31830932  0.29523091     0.13100
C316        C  0.12639600  0.35058951  0.20074803     0.62600
F317        F  0.50004966  0.36125569  0.31403342    -0.22600
F318        F  0.48461895  0.31137054  0.35607784    -0.19900
F319        F  0.48494854  0.31832408  0.26229663    -0.19600
F320        F  0.15151110  0.37463187  0.22499258    -0.19600
F321        F  0.13263122  0.35558733  0.14243356    -0.20000
F322        F  0.12414723  0.32091304  0.21691180    -0.22600
C323        C  0.99041682  0.24192387  0.12239758    -0.05500
C324        C  0.96126191  0.21951951  0.10449973     0.00500
C325        C  0.95000425  0.18567115  0.11603205    -0.08100
C326        C  0.96987152  0.17548368  0.13983231    -0.05500
C327        C  0.00140994  0.19763097  0.15128473     0.00400
C328        C  0.01126930  0.23207895  0.14400912    -0.08000
C329        C  0.04426240  0.25928071  0.15436699     0.62400
H330        H  0.99835666  0.26769020  0.11275542     0.13100
H331        H  0.96135462  0.14959570  0.14376212     0.13100
C332        C  0.41775944  0.15395665  0.10058995     0.62600
F333        F  0.04512168  0.28894600  0.64993495    -0.22600
F334        F  0.06782414  0.25695560  0.12155944    -0.19900
F335        F  0.04809992  0.25750258  0.21095407    -0.19600
F336        F  0.41283694  0.12319606  0.11654605    -0.19600
F337        F  0.41823714  0.15587128  0.04253414    -0.20000
F338        F  0.39216350  0.15643157  0.12475385    -0.22600
C339        C  0.24375449  0.27829051  0.30508483    -0.05500
C340        C  0.22444400  0.24467720  0.29861556     0.00500
C341        C  0.24017243  0.22779471  0.27883902    -0.08100
C342        C  0.27387453  0.24361132  0.27327170    -0.05500
C343        C  0.29335311  0.27581416  0.28860034     0.00400
C344        C  0.27703642  0.29245695  0.30933299    -0.08000
C345        C  0.29193286  0.32244240  0.34298594     0.62400
H346        H  0.23158263  0.29113050  0.32032956     0.13100
H347        H  0.28450019  0.22880986  0.26189257     0.13100
C348        C  0.22237978  0.19185648  0.26872005     0.62600
F349        F  0.26911409  0.32205415  0.38269187    -0.22600
F350        F  0.30428407  0.35080038  0.30711545    -0.19900
F351        F  0.31562272  0.32331501  0.37302929    -0.19600
F352        F  0.18981184  0.17960939  0.27136876    -0.19600
F353        F  0.22830675  0.17392937  0.30879362    -0.20000
F354        F  0.23295360  0.18781541  0.21555716    -0.22600
C355        C  0.10127067  0.16755564  0.44997446    -0.05500
C356        C  0.12138157  0.19989182  0.42659696     0.00500
C357        C  0.11656757  0.22508425  0.44741040    -0.08100
C358        C  0.09522584  0.21764732  0.49673603    -0.05500
C359        C  0.08115167  0.18587430  0.02447033     0.00400
C360        C  0.07943398  0.15978031  0.99448035    -0.08000
C361        C  0.05573937  0.12411820  0.01265663     0.62400
H362        H  0.10531573  0.14830682  0.43583468     0.13100
H363        H  0.09373283  0.23717515  0.51678131     0.13100
C364        C  0.13582513  0.26006987  0.42013928     0.62600
F365        F  0.02718353  0.12034642  0.03779935    -0.22600
F366        F  0.06888133  0.11198242  0.04957707    -0.19900
F367        F  0.04877813  0.10591459  0.96629718    -0.19600
F368        F  0.13236781  0.26057844  0.36308973    -0.19600
F369        F  0.16783146  0.27272343  0.42648537    -0.20000
F370        F  0.12572241  0.28021035  0.44403710    -0.22600
C371        C  0.09888899  0.16892560  0.25188226    -0.05500
C372        C  0.10068081  0.19522757  0.21865484     0.00500
C373        C  0.12720359  0.22704008  0.22119664    -0.08100
C374        C  0.14888836  0.23203782  0.26157203    -0.05500
C375        C  0.14565895  0.20600915  0.29787128     0.00400
C376        C  0.12124960  0.17352290  0.29033663    -0.08000
C377        C  0.11825362  0.14260596  0.31926980     0.62400
H378        H  0.07964694  0.14431686  0.24787056     0.13100
H379        H  0.16805245  0.25651846  0.26629963     0.13100
C380        C  0.13267858  0.25544377  0.18085959     0.62600
F381        F  0.08830302  0.12433651  0.34978007    -0.22600
F382        F  0.14150345  0.14890667  0.35478306    -0.19900
F383        F  0.12112827  0.12383229  0.27862216    -0.19600
F384        F  0.10853593  0.26252170  0.19314512    -0.19600
F385        F  0.16168059  0.28334799  0.18513013    -0.20000
F386        F  0.13256304  0.24719526  0.12571483    -0.22600
C387        C  0.20429895  0.94198559  0.29591367    -0.05500
C388        C  0.23604656  0.95909997  0.30784387     0.00500
C389        C  0.25273545  0.99362074  0.29770660    -0.08100
C390        C  0.23599363  0.00984560  0.28416409    -0.05500
C391        C  0.20248050  0.99318798  0.28237275     0.00400
C392        C  0.18684620  0.95798066  0.28339818    -0.08000
C393        C  0.15195953  0.93594440  0.27559826     0.62400
H394        H  0.18549077  0.41196406  0.31107112     0.13100
H395        H  0.24900139  0.03646522  0.28063800     0.13100
C396        C  0.28727556  0.01463698  0.30860653     0.62600
F397        F  0.13399340  0.39999844  0.31328408    -0.22600
F398        F  0.14463893  0.94780942  0.22827254    -0.19900
F399        F  0.13282379  0.93376782  0.32384581    -0.19600
F400        F  0.30351434  0.03755664  0.26302903    -0.19600
F401        F  0.30261265  0.99669882  0.31575595    -0.20000
F402        F  0.28857999  0.03077932  0.35643210    -0.22600
C403        C  0.25486480  0.26610951  0.14314274    -0.05500
C404        C  0.28872920  0.28404608  0.13107326     0.00500
C405        C  0.30286903  0.26754194  0.10081044    -0.08100
C406        C  0.28296259  0.23472449  0.08777469    -0.05500
C407        C  0.24943206  0.21979306  0.09200812     0.00400
C408        C  0.23529124  0.23663360  0.11925078    -0.08000
C409        C  0.20027665  0.22703591  0.11965411     0.62400
H410        H  0.24274978  0.27770486  0.16350401     0.13100
H411        H  0.29351113  0.22204489  0.06576002     0.12700
C412        C  0.33804181  0.28425762  0.07654202     0.62600
F413        F  0.19775453  0.25455108  0.10614149    -0.22600
F414        F  0.18454610  0.21340304  0.17310719    -0.19900
F415        F  0.18506576  0.20520964  0.08097993    -0.19600
F416        F  0.35732766  0.29037758  0.11935940    -0.19600
F417        F  0.34671794  0.31302748  0.04391774    -0.20000
F418        F  0.34414682  0.26479850  0.04166677    -0.22600
C419        C  0.30459660  0.41117193  0.43040439    -0.05500
C420        C  0.27130801  0.39619986  0.42909775     0.00500
C421        C  0.25065622  0.36963577  0.46950049    -0.08100
C422        C  0.26572926  0.36306359  0.01474727    -0.05500
C423        C  0.29867999  0.37974058  0.01959842     0.00400
C424        C  0.31985480  0.40369944  0.97550724    -0.08000
C425        C  0.35573003  0.41775244  0.97242463     0.62400
H426        H  0.32015756  0.43183742  0.39981065     0.13100
H427        H  0.24984325  0.34338771  0.04680150     0.13100
C428        C  0.21499401  0.34962899  0.46505215     0.62600
F429        F  0.36952841  0.43587640  0.42143192    -0.22600
F430        F  0.36265075  0.39248480  0.97360524    -0.19900
F431        F  0.36718111  0.43572245  0.01776648    -0.19600
F432        F  0.21088817  0.33579537  0.41441886    -0.19600
F433        F  0.20093137  0.36905515  0.46669707    -0.20000
F434        F  0.19917382  0.32454715  0.50829707    -0.22600
C435        C  0.29443307  0.42364926  0.28394217    -0.05500
C436        C  0.26168071  0.40724137  0.30236138     0.00500
C437        C  0.24157310  0.37847231  0.27662370    -0.08100
C438        C  0.25498917  0.36818012  0.23229216    -0.05500
C439        C  0.28812613  0.38426526  0.21415454     0.00400
C440        C  0.30819804  0.41240047  0.24219242    -0.08000
C441        C  0.34418188  0.43041319  0.23117385     0.62400
H442        H  0.31301661  0.94656011  0.30629963     0.13100
H443        H  0.23919924  0.34644814  0.21256084     0.13100
C444        C  0.20605471  0.35715791  0.29399056     0.62600
F445        F  0.36152990  0.95183511  0.27086022    -0.22600
F446        F  0.35321500  0.45064387  0.18179071    -0.19900
F447        F  0.35495627  0.40830826  0.22783513    -0.19600
F448        F  0.19490356  0.36796814  0.33867357    -0.19600
F449        F  0.19902897  0.32540436  0.30923826    -0.20000
F450        F  0.19020096  0.35663990  0.24809612    -0.22600
C451        C  0.30433756  0.32307638  0.63020510     0.86800
C452        C  0.34058356  0.34550758  0.63279411    -0.53400
C453        C  0.35140429  0.37853660  0.62301238     0.09700
C454        C  0.32410555  0.38636030  0.61578909     0.20700
C455        C  0.28944433  0.33596620  0.67572721    -0.54200
C456        C  0.29984403  0.36901991  0.66974703     0.09800
C457        C  0.29794744  0.33437705  0.57424246    -0.53700
C458        C  0.30745062  0.36671341  0.56633396     0.10400
H459        H  0.35624960  0.33666797  0.64443830     0.14900
H460        H  0.33171228  0.41265685  0.60851120     0.00700
H461        H  0.27233060  0.32039111  0.71078892     0.15200
H462        H  0.28513481  0.31738784  0.54365522     0.15000
N463        N  0.25138519  0.41798707  0.85228593    -0.03200
C464        C  0.24007382  0.43965241  0.85350368    -0.00600
C465        C  0.23720152  0.94970273  0.90374679    -0.23500
C466        C  0.25442795  0.43768964  0.93818351    -0.23700
C467        C  0.26030275  0.41747399  0.90528773    -0.00700
H468        H  0.22970265  0.96698668  0.91619753     0.13100
H469        H  0.26064705  0.44329627  0.98028671     0.13100
N470        N  0.16456883  0.21080718  0.84101155    -0.03200
C471        C  0.19696293  0.22338300  0.83951513    -0.00600
C472        C  0.20558420  0.22563980  0.89360213    -0.23500
C473        C  0.17860520  0.21433172  0.93014308    -0.23700
C474        C  0.15400192  0.20620100  0.89735311    -0.00700
H475        H  0.22981544  0.23774191  0.90434225     0.13100
H476        H  0.17736888  0.21490039  0.97564080     0.13100
C477        C  0.02336616  0.18341493  0.65276094     0.86800
C478        C  0.00973728  0.14565070  0.66561879    -0.53400
C479        C  0.03188146  0.13554230  0.65549344     0.09700
C480        C  0.06552437  0.16387609  0.63349539     0.20700
C481        C  0.05124691  0.19766316  0.69017318    -0.54200
C482        C  0.07379064  0.18814606  0.67939540     0.09800
C483        C  0.03927575  0.19089586  0.59160088    -0.53700
C484        C  0.06060520  0.18049784  0.58088177     0.10400
H485        H  0.98530419  0.12839438  0.68305217     0.14900
H486        H  0.08371275  0.15627482  0.62438953     0.00700
H487        H  0.05108184  0.21024921  0.72690657     0.15200
H488        H  0.03340868  0.20301031  0.55842390     0.15000
C489        C  0.15180446  0.44228782  0.59846491     0.86800
C490        C  0.13246567  0.45998116  0.61084837    -0.53400
C491        C  0.09987771  0.43990473  0.61156019     0.09700
C492        C  0.08989059  0.40406076  0.60059153     0.20700
C493        C  0.13606344  0.41367349  0.64571142    -0.54200
C494        C  0.10393008  0.39277916  0.64686465     0.09800
C495        C  0.14121842  0.42740416  0.54316194    -0.53700
C496        C  0.10936970  0.40703892  0.54377809     0.10400
H497        H  0.14247012  0.48493308  0.62120963     0.14900
H498        H  0.06385926  0.38747544  0.60021508     0.00700
H499        H  0.14932706  0.41374050  0.67989684     0.15200
H500        H  0.15796076  0.43440806  0.50529276     0.15000
N501        N  0.53470198  0.30830042  0.88393316    -0.03200
C502        C  0.52370386  0.27573521  0.89675348    -0.00600
C503        C  0.51854885  0.26804182  0.95442260    -0.23500
C504        C  0.52554701  0.29609640  0.97859761    -0.23700
C505        C  0.53670156  0.32083641  0.93495863    -0.00700
H506        H  0.51250363  0.24485224  0.97655129     0.13100
H507        H  0.52765190  0.29916293  0.02319548     0.13100
N508        N  0.05254876  0.48020833  0.64296736    -0.27000
N509        N  0.02977544  0.44962471  0.63985263    -0.34800
C510        C  0.04311495  0.43105775  0.62864960     0.01400
C511        C  0.07604926  0.45061593  0.62458443     0.07400
C512        C  0.08123316  0.48173609  0.63407587    -0.05700
H513        H  0.53028347  0.40855855  0.64618302     0.08100
H514        H  0.10408507  0.50395776  0.63356243     0.09300
Cu515      Cu  0.48239295  0.43792330  0.65325673     0.44200
Cu516      Cu  0.04880775  0.02539499  0.63717387     0.42000
Cu517      Cu  0.46378569  0.00063648  0.64423822     0.43900
N518        N  0.43712467  0.42813709  0.63793395    -0.34400
N519        N  0.43009925  0.45163466  0.62920834    -0.28600
C520        C  0.39945605  0.43792262  0.61805644    -0.04700
C521        C  0.38589618  0.40396661  0.62287644     0.07500
C522        C  0.41093853  0.39885898  0.63452156     0.01300
H523        H  0.38794468  0.45186558  0.60847062     0.08900
H524        H  0.41010683  0.37557841  0.64177080     0.08000
N525        N  0.99876932  0.04699763  0.65031432    -0.35800
N526        N  0.02948381  0.05637972  0.65104558    -0.28000
C527        C  0.04557181  0.08876720  0.65762937    -0.03200
C528        C  0.02414069  0.10052047  0.66079706     0.05400
C529        C  0.99470993  0.07308479  0.65695756     0.03500
H530        H  0.07131075  0.10307472  0.65676400     0.08600
H531        H  0.97230851  0.07259631  0.65531770     0.07400
C532        C  0.32846802  0.28666453  0.78894159     0.86800
C533        C  0.34316907  0.27238684  0.74691596    -0.53400
C534        C  0.37421672  0.28092762  0.75168679     0.09700
C535        C  0.38890773  0.30497733  0.79719780     0.20700
C536        C  0.33505189  0.27768123  0.84758316    -0.54200
C537        C  0.36650783  0.28756169  0.85264036     0.09800
C538        C  0.35170941  0.32388883  0.77590917    -0.53700
C539        C  0.38316911  0.33369732  0.78142774     0.10400
H540        H  0.33064484  0.25799546  0.71354553     0.14900
H541        H  0.41428471  0.31224560  0.80061465     0.00700
H542        H  0.31613929  0.26422866  0.88222919     0.15200
H543        H  0.34461097  0.34102867  0.76097516     0.15000
N544        N  0.43102912  0.24411037  0.56820767    -0.03200
C545        C  0.94814931  0.23109065  0.56163762    -0.00600
C546        C  0.95400666  0.22485614  0.50721400    -0.23500
C547        C  0.43567105  0.23281774  0.97657179    -0.23700
C548        C  0.42362562  0.24612988  0.51439479    -0.00700
H549        H  0.96532501  0.21080755  0.49473665     0.13100
H550        H  0.43369454  0.23129174  0.93182321     0.13100
C551        C  0.18460241  0.01451109  0.78251632     0.86800
C552        C  0.14879485  0.00267056  0.77999822    -0.53400
C553        C  0.14022199  0.02615736  0.78463274     0.09700
C554        C  0.16890969  0.06037678  0.79163526     0.20700
C555        C  0.20104664  0.04306281  0.73480936    -0.54200
C556        C  0.19347625  0.06749484  0.73944191     0.09800
C557        C  0.19152282  0.03109805  0.83844496    -0.53700
C558        C  0.18451956  0.05575431  0.84288308     0.10400
H559        H  0.13106893  0.97897564  0.77333934     0.14900
H560        H  0.16227597  0.07967575  0.79652639     0.00700
H561        H  0.21609628  0.04268855  0.69893558     0.15200
H562        H  0.20015479  0.02275450  0.87257734     0.15000
N563        N  0.21822691  0.16382441  0.55411494    -0.03200
C564        C  0.23435092  0.19747267  0.55033574    -0.00600
C565        C  0.23929629  0.20974816  0.49475286    -0.23500
C566        C  0.22581831  0.18152180  0.96152963    -0.23700
C567        C  0.21243186  0.15551363  0.50005437    -0.00700
H568        H  0.25374517  0.23532741  0.47893705     0.13100
H569        H  0.22816193  0.18221549  0.91583896     0.13100
C570        C  0.45204215  0.14450802  0.83802541     0.86800
C571        C  0.46938137  0.12412841  0.83136654    -0.53400
C572        C  0.44934853  0.09121788  0.82984224     0.09700
C573        C  0.41366232  0.08135948  0.83573701     0.20700
C574        C  0.43229446  0.13534127  0.78781679    -0.54200
C575        C  0.41187877  0.10274191  0.78744133     0.09800
C576        C  0.42761553  0.12740809  0.89176693    -0.53700
C577        C  0.40735947  0.09418116  0.89127281     0.10400
H578        H  0.49504542  0.13449229  0.82286347     0.14900
H579        H  0.39345051  0.55390608  0.83433371     0.00700
H580        H  0.43656190  0.15238110  0.75203167     0.15200
H581        H  0.42675599  0.14075500  0.92736311     0.15000
N582        N  0.31479078  0.52085587  0.59389578    -0.03200
C583        C  0.28676841  0.49163230  0.60754170    -0.00600
C584        C  0.28732101  0.47687902  0.65893315    -0.23500
C585        C  0.31651467  0.49557895  0.67595285    -0.23700
C586        C  0.33245968  0.52234829  0.63675305    -0.00700
H587        H  0.26773333  0.45603971  0.68426095     0.13100
H588        H  0.32423626  0.49195310  0.71575858     0.13100
N589        N  0.45560541  0.41465924  0.77432853    -0.27000
N590        N  0.43299038  0.42272839  0.78113098    -0.34800
C591        C  0.40417569  0.39548122  0.78281456     0.01400
C592        C  0.40862115  0.36886169  0.77574285     0.07400
C593        C  0.44164077  0.38203660  0.77026670    -0.05700
H594        H  0.38159732  0.39478732  0.79219448     0.08100
H595        H  0.45454347  0.36873160  0.76601304     0.09300
Cu596      Cu  0.44227969  0.47026126  0.79104356     0.44200
Cu597      Cu  0.00995663  0.45807860  0.77345945     0.42000
Cu598      Cu  0.02778148  0.03616138  0.79095532     0.43900
N599        N  0.45684703  0.51891763  0.80362756    -0.34400
N600        N  0.49106637  0.04423192  0.81012092    -0.28600
C601        C  0.49164859  0.07255163  0.81972489    -0.04700
C602        C  0.46093636  0.06776732  0.81836428     0.07500
C603        C  0.43828712  0.53279524  0.80812993     0.01300
H604        H  0.51278704  0.09475409  0.82801379     0.08900
H605        H  0.41306418  0.52016000  0.80302543     0.08000
N606        N  0.06140394  0.02058779  0.78138710    -0.35800
N607        N  0.05416295  0.99056623  0.76982188    -0.28000
C608        C  0.08095912  0.98836713  0.76817763    -0.03200
C609        C  0.10643461  0.01825697  0.77972556     0.05400
C610        C  0.09294249  0.03805585  0.78759774     0.03500
H611        H  0.08153013  0.46931346  0.77553803     0.08600
H612        H  0.10493169  0.06303713  0.79865970     0.07400
C613        C  0.36355508  0.08637130  0.96633995    -0.05500
C614        C  0.38112876  0.07312979  0.93918861     0.00500
C615        C  0.37332728  0.04067729  0.95932645    -0.08100
C616        C  0.34816574  0.02268032  0.50297663    -0.05500
C617        C  0.33085165  0.53576004  0.53741545     0.00400
C618        C  0.33933411  0.57031146  0.01756559    -0.08000
C619        C  0.32521916  0.58938593  0.04539723     0.62400
H620        H  0.36874896  0.11080846  0.95153011     0.13100
H621        H  0.34171635  0.99795696  0.51850230     0.13100
C622        C  0.39346945  0.02533543  0.94144850     0.62600
F623        F  0.34958575  0.61929106  0.05757159    -0.22600
F624        F  0.30406945  0.57078744  0.59247816    -0.19900
F625        F  0.30722697  0.59485740  0.00850777    -0.19600
F626        F  0.42545191  0.04878477  0.93097598    -0.19600
F627        F  0.38270761  0.00871510  0.89433430    -0.20000
F628        F  0.38918181  0.00027110  0.48013037    -0.22600
C629        C  0.40701098  0.07268193  0.70357804    -0.05500
C630        C  0.39532041  0.08874898  0.73802665     0.00500
C631        C  0.36747377  0.08954658  0.72677597    -0.08100
C632        C  0.35149439  0.07307501  0.68164159    -0.05500
C633        C  0.36079420  0.05346958  0.65176275     0.00400
C634        C  0.38976771  0.05431633  0.66105913    -0.08000
C635        C  0.40289320  0.03560924  0.62869748     0.62400
H636        H  0.42887521  0.07299901  0.71212404     0.13100
H637        H  0.32893530  0.57211235  0.67265769     0.13100
C638        C  0.35346905  0.10553620  0.76479493     0.62600
F639        F  0.40973014  0.01729529  0.66637018    -0.22600
F640        F  0.43076343  0.05780686  0.59522334    -0.19900
F641        F  0.37863701  0.50959751  0.60280917    -0.19600
F642        F  0.37460747  0.13872135  0.76168559    -0.19600
F643        F  0.34807022  0.09219043  0.82023834    -0.20000
F644        F  0.32521019  0.60360556  0.74352589    -0.22600
C645        C  0.16537650  0.08050988  0.91526900    -0.05500
C646        C  0.19046299  0.07602312  0.89264423     0.00500
C647        C  0.22082176  0.09383246  0.91340570    -0.08100
C648        C  0.22414926  0.11423385  0.95751747    -0.05500
C649        C  0.19977462  0.12083502  0.97683224     0.00400
C650        C  0.16978332  0.10369080  0.95444462    -0.08000
C651        C  0.14372104  0.11010006  0.47261214     0.62400
H652        H  0.14234010  0.06669422  0.89954067     0.13100
H653        H  0.24736110  0.12862569  0.97236626     0.13100
C654        C  0.25079770  0.09548949  0.88405455     0.62600
F655        F  0.11952393  0.09559025  0.43810164    -0.22600
F656        F  0.15280011  0.14295329  0.47090207    -0.19900
F657        F  0.13120788  0.09515517  0.52677674    -0.19600
F658        F  0.25380944  0.10506442  0.82725637    -0.19600
F659        F  0.24935752  0.06549962  0.89032261    -0.20000
F660        F  0.27829995  0.11811446  0.90549972    -0.22600
C661        C  0.17922797  0.10299929  0.68327864    -0.05500
C662        C  0.20298983  0.09510321  0.69407600     0.00500
C663        C  0.23315568  0.11232931  0.65944738    -0.08100
C664        C  0.23698021  0.13459498  0.61366546    -0.05500
C665        C  0.21271940  0.14149874  0.60268638     0.00400
C666        C  0.18333294  0.12553503  0.63838983    -0.08000
C667        C  0.15552852  0.13134183  0.63182446     0.62400
H668        H  0.15610651  0.09016879  0.70851117     0.13100
H669        H  0.25927725  0.14695490  0.58574479     0.13100
C670        C  0.26189079  0.10822474  0.66768168     0.62600
F671        F  0.12691132  0.10184823  0.63989840    -0.22600
F672        F  0.15758630  0.14581944  0.57920173    -0.19900
F673        F  0.15481018  0.15134886  0.67191488    -0.19600
F674        F  0.26269332  0.08659566  0.63105292    -0.19600
F675        F  0.26126617  0.09693424  0.72239858    -0.20000
F676        F  0.28999742  0.13803584  0.65569108    -0.22600
C677        C  0.41437704  0.29086281  0.97610279    -0.05500
C678        C  0.40112245  0.25736685  0.99282784     0.00500
C679        C  0.37306645  0.23461219  0.96988796    -0.08100
C680        C  0.36189545  0.24568258  0.92586203    -0.05500
C681        C  0.37704917  0.27890045  0.90522478     0.00400
C682        C  0.40212169  0.30218616  0.93401090    -0.08000
C683        C  0.41725519  0.33882129  0.91978187     0.62400
H684        H  0.93986850  0.31140648  0.98724638     0.13100
H685        H  0.34182905  0.22784649  0.90580662     0.13100
C686        C  0.35593331  0.19716390  0.48859687     0.62600
F687        F  0.94046145  0.36053493  0.95643292    -0.22600
F688        F  0.39481447  0.34693362  0.90431873    -0.19900
F689        F  0.44171119  0.34903372  0.87630073    -0.19600
F690        F  0.32371210  0.18686659  0.50133443    -0.19600
F691        F  0.36649453  0.18963927  0.53633206    -0.20000
F692        F  0.35946241  0.18009376  0.44531748    -0.22600
C693        C  0.42087205  0.29335326  0.68156928    -0.05500
C694        C  0.39175084  0.26967519  0.71212870     0.00500
C695        C  0.37781159  0.23662120  0.69839212    -0.08100
C696        C  0.39138704  0.22939306  0.65051226    -0.05500
C697        C  0.41962018  0.25326021  0.61839112     0.00400
C698        C  0.43536785  0.28562790  0.63535953    -0.08000
C699        C  0.96777952  0.31882658  0.59136854     0.62400
H700        H  0.43181466  0.31850463  0.69232962     0.13100
H701        H  0.37972048  0.20473478  0.63776219     0.13100
C702        C  0.34849853  0.20829346  0.73256248     0.62600
F703        F  0.96365481  0.34398545  0.56915859    -0.22600
F704        F  0.97942053  0.30773766  0.54786634    -0.19900
F705        F  0.99060921  0.33135190  0.62867830    -0.19600
F706        F  0.35192415  0.18078150  0.73608205    -0.19600
F707        F  0.32158436  0.20099018  0.70604810    -0.20000
F708        F  0.34410979  0.21521973  0.78738110    -0.22600
C709        C  0.50510142  0.19407183  0.85446648    -0.05500
C710        C  0.47370691  0.18219542  0.83971373     0.00500
C711        C  0.46322627  0.20587925  0.83172858    -0.08100
C712        C  0.48454395  0.23917019  0.83841292    -0.05500
C713        C  0.51413139  0.24945146  0.85835102     0.00400
C714        C  0.52528465  0.22691447  0.86359903    -0.08000
C715        C  0.55738620  0.23563775  0.88358122     0.62400
H716        H  0.51381292  0.17750537  0.86411688     0.13100
H717        H  0.47664432  0.25700087  0.83453482     0.13100
C718        C  0.42982286  0.19763622  0.81814394     0.62600
F719        F  0.55227966  0.21796949  0.93500734    -0.22600
F720        F  0.07832578  0.26746447  0.86088457    -0.19900
F721        F  0.57438127  0.22739102  0.84447041    -0.19600
F722        F  0.42253668  0.22160420  0.83263096    -0.19600
F723        F  0.40644881  0.16870192  0.84784728    -0.20000
F724        F  0.42834925  0.19589001  0.76058303    -0.22600
C725        C  0.20021243  0.43615313  0.59634394    -0.05500
C726        C  0.18875195  0.45863385  0.59348170     0.00500
C727        C  0.21179363  0.49197884  0.57462328    -0.08100
C728        C  0.24484725  0.50174329  0.57086744    -0.05500
C729        C  0.25557530  0.47961309  0.58375443     0.00400
C730        C  0.23266107  0.44573206  0.59131237    -0.08000
C731        C  0.24095154  0.41847890  0.59670160     0.62400
H732        H  0.18337902  0.41005235  0.60253406     0.13100
H733        H  0.26224461  0.52695405  0.56074424     0.13100
C734        C  0.20279767  0.51771817  0.55863996     0.62600
F735        F  0.22365394  0.39459891  0.56206674    -0.22600
F736        F  0.23244696  0.40403732  0.65176287    -0.19900
F737        F  0.27313218  0.42955572  0.58121764    -0.19600
F738        F  0.19350885  0.52754160  0.60696703    -0.19600
F739        F  0.17850462  0.50554619  0.52402725    -0.20000
F740        F  0.22846652  0.54538137  0.52922842    -0.22600
C741        C  0.06704700  0.39298203  0.48109533    -0.05500
C742        C  0.09471746  0.39207529  0.49245088     0.00500
C743        C  0.10878306  0.37977144  0.95721854    -0.08100
C744        C  0.09218726  0.36417899  0.91195580    -0.05500
C745        C  0.06129214  0.35880497  0.90746135     0.00400
C746        C  0.55140207  0.37424983  0.97404557    -0.08000
C747        C  0.52339630  0.37717506  0.95634596     0.62400
H748        H  0.55820058  0.40506856  0.53833002     0.13100
H749        H  0.10030222  0.35040099  0.88690052     0.13100
C750        C  0.13681740  0.37516233  0.97028351     0.62600
F751        F  0.51118122  0.39094550  0.49449343    -0.22600
F752        F  0.49655703  0.34661839  0.95682878    -0.19900
F753        F  0.53177708  0.39286524  0.90227552    -0.19600
F754        F  0.13687791  0.37037951  0.02796080    -0.19600
F755        F  0.16535501  0.40221081  0.94742397    -0.20000
F756        F  0.13504095  0.34782347  0.94730412    -0.22600
C757        C  0.05375652  0.36105895  0.71563591    -0.05500
C758        C  0.08429185  0.36633405  0.69494417     0.00500
C759        C  0.09571889  0.34726878  0.72257238    -0.08100
C760        C  0.07882503  0.32802084  0.77374219    -0.05500
C761        C  0.04983879  0.32506232  0.79656689     0.00400
C762        C  0.53653358  0.34250313  0.79811073    -0.08000
C763        C  0.50229890  0.33533283  0.81074831     0.62400
H764        H  0.04382399  0.37411410  0.69415439     0.13100
H765        H  0.08883777  0.31584929  0.79747641     0.13100
C766        C  0.12536251  0.34635453  0.69928872     0.62600
F767        F  0.50209839  0.36428052  0.81717530    -0.22600
F768        F  0.48627794  0.31418116  0.85895837    -0.19900
F769        F  0.48567682  0.32121248  0.76560197    -0.19600
F770        F  0.15220808  0.37187017  0.71683211    -0.19600
F771        F  0.12811202  0.34778422  0.64079557    -0.20000
F772        F  0.12410724  0.31780553  0.71938937    -0.22600
C773        C  0.98748791  0.24088120  0.62889927    -0.05500
C774        C  0.95859501  0.21879330  0.60978192     0.00500
C775        C  0.94779520  0.18487618  0.61904856    -0.08100
C776        C  0.96786049  0.17447342  0.64159225    -0.05500
C777        C  0.99902177  0.19645959  0.65483765     0.00400
C778        C  0.00842336  0.23085645  0.64972721    -0.08000
C779        C  0.04109786  0.25793900  0.66154744     0.62400
H780        H  0.99521734  0.26669127  0.62080230     0.13100
H781        H  0.95990729  0.14868702  0.64348767     0.13100
C782        C  0.41753182  0.15657256  0.61058819     0.62600
F783        F  0.04861208  0.29024193  0.14057815    -0.22600
F784        F  0.06498447  0.25657386  0.62795319    -0.19900
F785        F  0.04457100  0.25496668  0.71809020    -0.19600
F786        F  0.41237301  0.12562134  0.62533836    -0.19600
F787        F  0.41488734  0.15820045  0.55345723    -0.20000
F788        F  0.39375866  0.16011871  0.64002371    -0.22600
C789        C  0.24152942  0.27427892  0.79783026    -0.05500
C790        C  0.22325352  0.24045597  0.79254366     0.00500
C791        C  0.23991008  0.22415276  0.77502992    -0.08100
C792        C  0.27349701  0.24049063  0.77235293    -0.05500
C793        C  0.29204810  0.27329828  0.78584501     0.00400
C794        C  0.27481287  0.28965734  0.80303860    -0.08000
C795        C  0.28892705  0.32073841  0.83399023     0.62400
H796        H  0.22843986  0.28657063  0.81095161     0.13100
H797        H  0.28475178  0.22590750  0.76391551     0.13100
C798        C  0.22280785  0.18820897  0.76488730     0.62600
F799        F  0.26527837  0.32243773  0.86807925    -0.22600
F800        F  0.30351212  0.34830527  0.79594572    -0.19900
F801        F  0.31064931  0.32145228  0.86914465    -0.19600
F802        F  0.19050292  0.17620671  0.76271275    -0.19600
F803        F  0.22680236  0.17019069  0.80775400    -0.20000
F804        F  0.23559052  0.18412992  0.71382415    -0.22600
C805        C  0.10154800  0.16716396  0.94669817    -0.05500
C806        C  0.12266677  0.19948307  0.92446512     0.00500
C807        C  0.12003895  0.22527111  0.94814891    -0.08100
C808        C  0.09983410  0.21814774  0.99890860    -0.05500
C809        C  0.07734498  0.18550811  0.52307651     0.00400
C810        C  0.07747656  0.15968283  0.49493542    -0.08000
C811        C  0.05302650  0.12382845  0.50951655     0.62400
H812        H  0.10426041  0.14760846  0.93001491     0.13100
H813        H  0.09955625  0.23790924  0.02024561     0.13100
C814        C  0.14012987  0.26036214  0.92157566     0.62600
F815        F  0.02596023  0.11955135  0.54168626    -0.22600
F816        F  0.06668868  0.10848535  0.53783378    -0.19900
F817        F  0.04326395  0.10903515  0.46019631    -0.19600
F818        F  0.13561407  0.26167115  0.86510694    -0.19600
F819        F  0.17218014  0.27157838  0.92560303    -0.20000
F820        F  0.13178127  0.28123141  0.94775012    -0.22600
C821        C  0.09862187  0.16801774  0.74739674    -0.05500
C822        C  0.09979955  0.19475543  0.71661802     0.00500
C823        C  0.12572932  0.22661521  0.72140070    -0.08100
C824        C  0.14741219  0.23103364  0.76140519    -0.05500
C825        C  0.14492291  0.20444681  0.79486775     0.00400
C826        C  0.12102709  0.17213586  0.78547813    -0.08000
C827        C  0.11844155  0.14102889  0.81258618     0.62400
H828        H  0.07975068  0.14345715  0.74197134     0.13100
H829        H  0.16621712  0.25540895  0.76772318     0.13100
C830        C  0.13054930  0.25571412  0.68394063     0.62600
F831        F  0.08864434  0.12225028  0.84335665    -0.22600
F832        F  0.14187120  0.14704586  0.84756636    -0.19900
F833        F  0.12134373  0.12294762  0.77063014    -0.19600
F834        F  0.10517384  0.26075060  0.69701772    -0.19600
F835        F  0.15855116  0.28404755  0.69138208    -0.20000
F836        F  0.13190462  0.24964493  0.62769974    -0.22600
C837        C  0.19893203  0.93855754  0.79090820    -0.05500
C838        C  0.23069064  0.95489707  0.80289210     0.00500
C839        C  0.24795845  0.98941987  0.79382456    -0.08100
C840        C  0.23189835  0.00642512  0.78098764    -0.05500
C841        C  0.19840290  0.99062638  0.77952574     0.00400
C842        C  0.18169610  0.95526481  0.78173841    -0.08000
C843        C  0.14591430  0.93386461  0.77995924     0.62400
H844        H  0.18525509  0.41150675  0.81074688     0.13100
H845        H  0.24549623  0.03301396  0.77817813     0.13100
C846        C  0.28229953  0.00961051  0.80623086     0.62600
F847        F  0.13417391  0.40034928  0.80659633    -0.22600
F848        F  0.13735140  0.94197126  0.73038304    -0.19900
F849        F  0.12950447  0.93743608  0.82692042    -0.19600
F850        F  0.29938071  0.03285018  0.76146924    -0.19600
F851        F  0.29691429  0.99102843  0.81364751    -0.20000
F852        F  0.28331273  0.02528638  0.85453503    -0.22600
C853        C  0.25535919  0.26704503  0.64440131    -0.05500
C854        C  0.28914809  0.28489703  0.63205706     0.00500
C855        C  0.30332927  0.26822563  0.60244523    -0.08100
C856        C  0.28339765  0.23527680  0.59024832    -0.05500
C857        C  0.24992398  0.22063982  0.59408125     0.00400
C858        C  0.23586473  0.23771604  0.62055846    -0.08000
C859        C  0.20116573  0.22893758  0.61986285     0.62400
H860        H  0.24317260  0.27878105  0.66398423     0.13100
H861        H  0.29386690  0.22239661  0.56865860     0.12700
C862        C  0.33842818  0.28486054  0.57773291     0.62600
F863        F  0.19974485  0.25615007  0.59939916    -0.22600
F864        F  0.18590727  0.21920880  0.67439782    -0.19900
F865        F  0.18480401  0.20450323  0.58606585    -0.19600
F866        F  0.35796883  0.29187797  0.62033757    -0.19600
F867        F  0.34670676  0.31310429  0.54380708    -0.20000
F868        F  0.34457658  0.26496526  0.54398967    -0.22600
C869        C  0.30677334  0.41371887  0.93291228    -0.05500
C870        C  0.27354093  0.39800009  0.93014309     0.00500
C871        C  0.25308888  0.37062139  0.96919300    -0.08100
C872        C  0.26356788  0.36184464  0.51434653    -0.05500
C873        C  0.29662135  0.37844301  0.51835014     0.00400
C874        C  0.31771625  0.40185750  0.47370966    -0.08000
C875        C  0.35365779  0.41688180  0.47192831     0.62400
H876        H  0.32229109  0.43482121  0.90310033     0.13100
H877        H  0.24778671  0.34263109  0.54716448     0.13100
C878        C  0.21815724  0.34874999  0.96152027     0.62600
F879        F  0.37156784  0.43810406  0.92311247    -0.22600
F880        F  0.36149243  0.39236386  0.47747800    -0.19900
F881        F  0.36422076  0.43656322  0.51557930    -0.19600
F882        F  0.21679088  0.33554900  0.91065730    -0.19600
F883        F  0.20213235  0.36627372  0.96116170    -0.20000
F884        F  0.20247044  0.32307369  0.00378891    -0.22600
C885        C  0.29453406  0.42350224  0.78413810    -0.05500
C886        C  0.26188797  0.40678380  0.80333124     0.00500
C887        C  0.24165015  0.37808499  0.77759057    -0.08100
C888        C  0.25484142  0.36827533  0.73221110    -0.05500
C889        C  0.28785332  0.38488067  0.71285661     0.00400
C890        C  0.30805253  0.41294462  0.74083800    -0.08000
C891        C  0.34390733  0.43183100  0.72741952     0.62400
H892        H  0.30891526  0.94507490  0.80558560     0.13100
H893        H  0.23900916  0.34651180  0.71260118     0.13100
C894        C  0.20632078  0.35621597  0.79631946     0.62600
F895        F  0.35844201  0.95303439  0.77036708    -0.22600
F896        F  0.35131465  0.45111363  0.67738978    -0.19900
F897        F  0.35551197  0.41043021  0.72374323    -0.19600
F898        F  0.19543726  0.36657347  0.84207039    -0.19600
F899        F  0.19998124  0.32457593  0.81041987    -0.20000
F900        F  0.18961363  0.35548275  0.75170981    -0.22600
C901        C  0.30447837  0.82470942  0.13068626     0.86800
C902        C  0.34078348  0.84691735  0.13269796    -0.53400
C903        C  0.35187534  0.87997274  0.12243394     0.09700
C904        C  0.32479006  0.88810360  0.11517544     0.20700
C905        C  0.29008318  0.83804869  0.17622764    -0.54200
C906        C  0.30068804  0.87110117  0.16940897     0.09800
C907        C  0.29806492  0.83592382  0.07447809    -0.53700
C908        C  0.30788675  0.86840317  0.06585531     0.10400
H909        H  0.35629720  0.83796581  0.14461863     0.14900
H910        H  0.33256905  0.91445418  0.10819893     0.00700
H911        H  0.27345617  0.82281847  0.21229633     0.15200
H912        H  0.28513371  0.81877161  0.04420785     0.15000
N913        N  0.25481528  0.92130590  0.35237987    -0.03200
C914        C  0.24478942  0.94393519  0.35407599    -0.00600
C915        C  0.24046306  0.45070375  0.40703186    -0.23500
C916        C  0.25890874  0.94055865  0.43857586    -0.23700
C917        C  0.26361536  0.91987621  0.40508558    -0.00700
H918        H  0.23350991  0.46821285  0.42061690     0.13100
H919        H  0.26544788  0.94553755  0.48067452     0.13100
N920        N  0.16293006  0.71141788  0.34774131    -0.03200
C921        C  0.19553677  0.72505657  0.34581332    -0.00600
C922        C  0.20442174  0.72767502  0.39976352    -0.23500
C923        C  0.17747742  0.71579816  0.43661618    -0.23700
C924        C  0.15258830  0.70693014  0.40423233    -0.00700
H925        H  0.22871217  0.73985578  0.41031229     0.13100
H926        H  0.17635224  0.71623955  0.48214422     0.13100
C927        C  0.02104980  0.68067879  0.15590637     0.86800
C928        C  0.00622214  0.64306878  0.17161390    -0.53400
C929        C  0.02757396  0.63182096  0.16457383     0.09700
C930        C  0.06193394  0.65909909  0.14320970     0.20700
C931        C  0.04860844  0.69542330  0.19402281    -0.54200
C932        C  0.07045182  0.68471529  0.18691863     0.09800
C933        C  0.03730373  0.68606736  0.09558987    -0.53700
C934        C  0.05836205  0.67503706  0.08825155     0.10400
H935        H  0.98150713  0.62653624  0.18807948     0.14900
H936        H  0.07960316  0.65059567  0.13718986     0.00700
H937        H  0.04890027  0.71004419  0.22780134     0.15200
H938        H  0.03226188  0.69779868  0.06053491     0.15000
C939        C  0.15400284  0.94504850  0.08300400     0.86800
C940        C  0.13610207  0.96405831  0.09765010    -0.53400
C941        C  0.10346593  0.94569907  0.09625405     0.09700
C942        C  0.09203809  0.91017866  0.08167634     0.20700
C943        C  0.13648375  0.91479320  0.12734311    -0.54200
C944        C  0.10426833  0.89616248  0.12670587     0.09800
C945        C  0.14376780  0.93254231  0.02588817    -0.53700
C946        C  0.11173544  0.91396882  0.02451497     0.10400
H947        H  0.14714580  0.98856678  0.11069433     0.14900
H948        H  0.06594200  0.89459622  0.08049424     0.00700
H949        H  0.14864241  0.90989288  0.15950698     0.15200
H950        H  0.16099931  0.94005919  0.98871292     0.15000
N951        N  0.53130936  0.80564699  0.38477422    -0.03200
C952        C  0.52162405  0.77366097  0.40045498    -0.00600
C953        C  0.51624740  0.76751859  0.45846780    -0.23500
C954        C  0.52200585  0.79603929  0.47975508    -0.23700
C955        C  0.53266637  0.81961224  0.43419777    -0.00700
H956        H  0.51065138  0.74509516  0.48289127     0.13100
H957        H  0.52411632  0.80044855  0.52392228     0.13100
N958        N  0.05736071  0.98720594  0.13000661    -0.27000
N959        N  0.03448545  0.95718373  0.12363899    -0.34800
C960        C  0.04748315  0.93855043  0.11114764     0.01400
C961        C  0.08037446  0.95733525  0.10966429     0.07400
C962        C  0.08591015  0.98824700  0.12197997    -0.05700
H963        H  0.52874194  0.90667237  0.14961159     0.08100
H964        H  0.10887320  0.00991960  0.12412382     0.09300
Cu965      Cu  0.48198794  0.93755116  0.15566666     0.44200
Cu966      Cu  0.04090890  0.51986388  0.15830766     0.42000
Cu967      Cu  0.46197322  0.49990359  0.14594256     0.43900
N968        N  0.43731806  0.92870428  0.13918075    -0.34400
N969        N  0.43094340  0.95251523  0.12862250    -0.28600
C970        C  0.40046052  0.93912307  0.11671064    -0.04700
C971        C  0.38640270  0.90511384  0.12262970     0.07500
C972        C  0.41093435  0.89959930  0.13604930     0.01300
H973        H  0.38940684  0.95336053  0.10594164     0.08900
H974        H  0.40965907  0.87618982  0.14459564     0.08000
N975        N  0.99274954  0.54352976  0.15584967    -0.35800
N976        N  0.02210748  0.55137853  0.16619095    -0.28000
C977        C  0.03808736  0.58327340  0.17595448    -0.03200
C978        C  0.01810225  0.59641908  0.17095693     0.05400
C979        C  0.98946221  0.57028477  0.15901236     0.03500
H980        H  0.06320176  0.59648734  0.18207153     0.08600
H981        H  0.96864165  0.57137186  0.14877103     0.07400
C982        C  0.32682734  0.78579644  0.29222551     0.86800
C983        C  0.34132231  0.77135885  0.25009649    -0.53400
C984        C  0.37220858  0.77931931  0.25536635     0.09700
C985        C  0.38680383  0.80270271  0.30190708     0.20700
C986        C  0.33256181  0.77581889  0.35073952    -0.54200
C987        C  0.36369439  0.78495739  0.35657551     0.09800
C988        C  0.35071496  0.82305558  0.28041291    -0.53700
C989        C  0.38199771  0.83214756  0.28671642     0.10400
H990        H  0.32879244  0.75720817  0.21650600     0.14900
H991        H  0.41195919  0.80933266  0.30619237     0.00700
H992        H  0.31329487  0.76218627  0.38477833     0.15200
H993        H  0.34381319  0.84069934  0.26696747     0.15000
N994        N  0.42839440  0.74283507  0.06999695    -0.03200
C995        C  0.94707283  0.72785050  0.05666903    -0.00600
C996        C  0.94908596  0.71767363  0.00370136    -0.23500
C997        C  0.43220633  0.73029070  0.48097727    -0.23700
C998        C  0.42051169  0.74426497  0.01643649    -0.00700
H999        H  0.96070617  0.70394348  0.99079790     0.13100
H1000       H  0.43046862  0.72873369  0.43616340     0.13100
C1001       C  0.18302036  0.51406640  0.29393587     0.86800
C1002       C  0.14706004  0.50224933  0.29420491    -0.53400
C1003       C  0.13888530  0.52609160  0.29802123     0.09700
C1004       C  0.16803267  0.56052078  0.30143323     0.20700
C1005       C  0.19836670  0.54145389  0.24420264    -0.54200
C1006       C  0.19118889  0.56619260  0.24787989     0.09800
C1007       C  0.19167718  0.53216252  0.34803874    -0.53700
C1008       C  0.18488777  0.55699423  0.35178578     0.10400
H1009       H  0.12887109  0.47805884  0.29004068     0.14900
H1010       H  0.16168110  0.58008479  0.30529815     0.00700
H1011       H  0.21257517  0.54007927  0.20813217     0.15200
H1012       H  0.20084715  0.52432387  0.38184817     0.15000
N1013       N  0.21730541  0.66333998  0.06232196    -0.03200
C1014       C  0.23307135  0.69705752  0.05773573    -0.00600
C1015       C  0.23762687  0.70882288  0.00192058    -0.23500
C1016       C  0.22388525  0.68267579  0.47064693    -0.23700
C1017       C  0.21140544  0.65461632  0.00843511    -0.00700
H1018       H  0.25188229  0.73429803  0.98547649     0.13100
H1019       H  0.22497189  0.68360465  0.42497499     0.13100
C1020       C  0.44953813  0.64190514  0.34232161     0.86800
C1021       C  0.46704643  0.62173312  0.33541893    -0.53400
C1022       C  0.44716300  0.58881973  0.33340310     0.09700
C1023       C  0.41143464  0.57881078  0.33899223     0.20700
C1024       C  0.43010456  0.63302199  0.29173943    -0.54200
C1025       C  0.40981231  0.60042807  0.29077312     0.09800
C1026       C  0.42496192  0.62461169  0.39556355    -0.53700
C1027       C  0.40489551  0.59145239  0.39456449     0.10400
H1028       H  0.49280202  0.63246910  0.32738505     0.14900
H1029       H  0.39559650  0.05376625  0.32865814     0.00700
H1030       H  0.43447445  0.65026541  0.25622905     0.15200
H1031       H  0.42381385  0.63777148  0.43127447     0.15000
N1032       N  0.31595805  0.02119897  0.08847380    -0.03200
C1033       C  0.28750739  0.99240982  0.10179265    -0.00600
C1034       C  0.28683631  0.97822546  0.15465343    -0.23500
C1035       C  0.31574684  0.99681704  0.17297470    -0.23700
C1036       C  0.33289663  0.02284018  0.13256701    -0.00700
H1037       H  0.26666370  0.95778904  0.17973360     0.13100
H1038       H  0.32255853  0.99353522  0.21394898     0.13100
N1039       N  0.45589198  0.91239866  0.28066104    -0.27000
N1040       N  0.43382366  0.92130722  0.28550352    -0.34800
C1041       C  0.40464940  0.89447876  0.28711021     0.01400
C1042       C  0.40819008  0.86716688  0.28195084     0.07400
C1043       C  0.44115041  0.87959736  0.27767344    -0.05700
H1044       H  0.38237140  0.89462859  0.29448681     0.08100
H1045       H  0.45342844  0.86565420  0.27446866     0.09300
Cu1046     Cu  0.44446433  0.96971035  0.29114290     0.44200
Cu1047     Cu  0.00928964  0.95041289  0.26605845     0.42000
Cu1048     Cu  0.02682434  0.53716101  0.30650869     0.43900
N1049       N  0.45941949  0.01899708  0.29960312    -0.34400
N1050       N  0.48968540  0.54280941  0.31146164    -0.28600
C1051       C  0.48998285  0.57098565  0.32102869    -0.04700
C1052       C  0.45897385  0.56559729  0.32151786     0.07500
C1053       C  0.44074479  0.03276508  0.30401649     0.01300
H1054       H  0.51116265  0.59350926  0.32801665     0.08900
H1055       H  0.41537619  0.01975474  0.30025352     0.08000
N1056       N  0.06024334  0.52120121  0.29777586    -0.35800
N1057       N  0.05310272  0.49162217  0.28357911    -0.28000
C1058       C  0.07973418  0.48915483  0.28153023    -0.03200
C1059       C  0.10508097  0.51844768  0.29505545     0.05400
C1060       C  0.09168282  0.53818990  0.30499028     0.03500
H1061       H  0.08271085  0.96425114  0.27258921     0.08600
H1062       H  0.10376197  0.56293212  0.31727847     0.07400
C1063       C  0.36033343  0.58348009  0.46732384    -0.05500
C1064       C  0.37864067  0.57051425  0.44220637     0.00500
C1065       C  0.37206618  0.53893919  0.46491616    -0.08100
C1066       C  0.34580921  0.52292576  0.00706921    -0.05500
C1067       C  0.33224040  0.03699170  0.03253369     0.00400
C1068       C  0.34200120  0.07021776  0.51401534    -0.08000
C1069       C  0.32828049  0.08943079  0.54270890     0.62400
H1070       H  0.36470243  0.60727900  0.45032422     0.13100
H1071       H  0.33939872  0.49822026  0.02263214     0.13100
C1072       C  0.39291738  0.52419401  0.44811031     0.62600
F1073       F  0.35283601  0.11821341  0.55802172    -0.22600
F1074       F  0.30376266  0.07009406  0.08834897    -0.19900
F1075       F  0.31186515  0.09709282  0.50532671    -0.19600
F1076       F  0.42474541  0.54821005  0.43774567    -0.19600
F1077       F  0.38275492  0.50732854  0.40106029    -0.20000
F1078       F  0.38737719  0.50091218  0.98574301    -0.22600
C1079       C  0.40508475  0.57026242  0.20709453    -0.05500
C1080       C  0.39363114  0.58678522  0.24087895     0.00500
C1081       C  0.36647264  0.58858214  0.22818854    -0.08100
C1082       C  0.35064003  0.57219584  0.18296896    -0.05500
C1083       C  0.35945790  0.55201188  0.15402847     0.00400
C1084       C  0.38800099  0.55215372  0.16421314    -0.08000
C1085       C  0.40078348  0.53300901  0.13231419     0.62400
H1086       H  0.42654868  0.56998874  0.21649903     0.13100
H1087       H  0.33039248  0.07304189  0.16784752     0.13100
C1088       C  0.35329291  0.60613668  0.26389628     0.62600
F1089       F  0.40772870  0.51492994  0.17030565    -0.22600
F1090       F  0.42851729  0.55482615  0.09815359    -0.19900
F1091       F  0.37902835  0.00996006  0.09665105    -0.19600
F1092       F  0.37515084  0.63919044  0.25820293    -0.19600
F1093       F  0.34771847  0.59416788  0.32022556    -0.20000
F1094       F  0.32928474  0.10786895  0.23404771    -0.22600
C1095       C  0.16610839  0.58262625  0.42260090    -0.05500
C1096       C  0.19102858  0.57756127  0.40106547     0.00500
C1097       C  0.22105071  0.59434647  0.42351409    -0.08100
C1098       C  0.22447769  0.61532210  0.46660087    -0.05500
C1099       C  0.20022126  0.62219472  0.48497117     0.00400
C1100       C  0.17031335  0.60527812  0.46255071    -0.08000
C1101       C  0.14293547  0.60896587  0.98104351     0.62400
H1102       H  0.14320150  0.56920276  0.40629501     0.13100
H1103       H  0.24747853  0.62928565  0.48239387     0.13100
C1104       C  0.25060166  0.59349893  0.39851732     0.62600
F1105       F  0.11864414  0.59394745  0.94686638    -0.22600
F1106       F  0.15206700  0.64184976  0.97788415    -0.19900
F1107       F  0.13053930  0.59479289  0.03563610    -0.19600
F1108       F  0.25449051  0.59973537  0.34043058    -0.19600
F1109       F  0.24782719  0.56335954  0.41237911    -0.20000
F1110       F  0.27824561  0.61703490  0.41836670    -0.22600
C1111       C  0.17707977  0.60166940  0.19059846    -0.05500
C1112       C  0.20055766  0.59335023  0.20151101     0.00500
C1113       C  0.23092906  0.61060626  0.16753111    -0.08100
C1114       C  0.23546800  0.63373642  0.12262259    -0.05500
C1115       C  0.21153183  0.64111439  0.11137911     0.00400
C1116       C  0.18178956  0.62486510  0.14621935    -0.08000
C1117       C  0.15451938  0.63158642  0.13970607     0.62400
H1118       H  0.15391614  0.58891067  0.21575957     0.13100
H1119       H  0.25788453  0.64609287  0.09507324     0.13100
C1120       C  0.25889272  0.60518684  0.17596704     0.62600
F1121       F  0.12542231  0.60260313  0.14799100    -0.22600
F1122       F  0.15688820  0.64620689  0.08699568    -0.19900
F1123       F  0.15450557  0.65193145  0.17969047    -0.19600
F1124       F  0.25701363  0.58059550  0.14403272    -0.19600
F1125       F  0.25920767  0.59691480  0.23209267    -0.20000
F1126       F  0.28781691  0.63341431  0.15863694    -0.22600
C1127       C  0.40697141  0.78603401  0.48543834    -0.05500
C1128       C  0.39558078  0.75243991  0.49738083     0.00500
C1129       C  0.36937606  0.72972526  0.47018383    -0.08100
C1130       C  0.35905459  0.74139491  0.42570534    -0.05500
C1131       C  0.37307942  0.77502837  0.40915862     0.00400
C1132       C  0.39534096  0.79774014  0.44283086    -0.08000
C1133       C  0.40787540  0.83421065  0.43305375     0.62400
H1134       H  0.93586496  0.80809037  0.49794001     0.13100
H1135       H  0.34063881  0.72390382  0.40224320     0.13100
C1136       C  0.35262073  0.69786487  0.98707188     0.62600
F1137       F  0.93481232  0.85605627  0.46463563    -0.22600
F1138       F  0.38331514  0.84019686  0.42263227    -0.19900
F1139       F  0.43138531  0.84718449  0.38760770    -0.19600
F1140       F  0.32113093  0.68906282  0.00419326    -0.19600
F1141       F  0.36394984  0.68784284  0.03087351    -0.20000
F1142       F  0.35337789  0.68151117  0.94050130    -0.22600
C1143       C  0.41870441  0.79184607  0.18460825    -0.05500
C1144       C  0.38968201  0.76811694  0.21541709     0.00500
C1145       C  0.37553038  0.73518422  0.20101442    -0.08100
C1146       C  0.38875845  0.72813890  0.15240527    -0.05500
C1147       C  0.41700909  0.75201041  0.12026500     0.00400
C1148       C  0.43285791  0.78432849  0.13753110    -0.08000
C1149       C  0.96573043  0.81222180  0.09327624     0.62400
H1150       H  0.42973697  0.81693677  0.19571406     0.13100
H1151       H  0.37679947  0.70360575  0.13910291     0.13100
C1152       C  0.34642487  0.70677851  0.23545350     0.62600
F1153       F  0.99035932  0.82036571  0.12634444    -0.22600
F1154       F  0.96275569  0.83958832  0.08145274    -0.19900
F1155       F  0.97404112  0.80336287  0.04303299    -0.19600
F1156       F  0.34995492  0.67932291  0.23833891    -0.19600
F1157       F  0.31927949  0.69945244  0.20968122    -0.20000
F1158       F  0.34237926  0.71361538  0.29045985    -0.22600
C1159       C  0.50138685  0.69024269  0.36472411    -0.05500
C1160       C  0.47119586  0.67935311  0.34528832     0.00500
C1161       C  0.46177169  0.70363958  0.33455246    -0.08100
C1162       C  0.48346967  0.73680870  0.34103942    -0.05500
C1163       C  0.51204666  0.74634849  0.36427083     0.00400
C1164       C  0.52192244  0.72301285  0.37352051    -0.08000
C1165       C  0.55298466  0.73092171  0.39680413     0.62400
H1166       H  0.50874327  0.67291848  0.37751507     0.13100
H1167       H  0.47642092  0.75516900  0.33445621     0.13100
C1168       C  0.42891923  0.69624107  0.31931992     0.62600
F1169       F  0.54608887  0.71521272  0.45070564    -0.22600
F1170       F  0.07371604  0.77008569  0.34792350    -0.19900
F1171       F  0.56926950  0.71960869  0.36248563    -0.19600
F1172       F  0.42182292  0.72021723  0.33469652    -0.19600
F1173       F  0.40486182  0.66703361  0.34718492    -0.20000
F1174       F  0.42858464  0.69569256  0.26137265    -0.22600
C1175       C  0.20158393  0.93750931  0.08502380    -0.05500
C1176       C  0.19079086  0.96042867  0.07982743     0.00500
C1177       C  0.21449131  0.99334792  0.05933807    -0.08100
C1178       C  0.24732432  0.00256217  0.05803549    -0.05500
C1179       C  0.25714802  0.98030845  0.07524373     0.00400
C1180       C  0.23378631  0.94657343  0.08357117    -0.08000
C1181       C  0.24126695  0.91892003  0.09256162     0.62400
H1182       H  0.18453683  0.91146891  0.09024085     0.13100
H1183       H  0.26532216  0.02764995  0.04642140     0.13100
C1184       C  0.20646954  0.01929803  0.03952517     0.62600
F1185       F  0.22463864  0.89469911  0.05792568    -0.22600
F1186       F  0.23122084  0.90511100  0.14795014    -0.19900
F1187       F  0.27352283  0.92934715  0.08016371    -0.19600
F1188       F  0.19804063  0.03134888  0.08574943    -0.19600
F1189       F  0.18193707  0.00657046  0.00548070    -0.20000
F1190       F  0.23256297  0.04556617  0.00792628    -0.22600
C1191       C  0.06916434  0.90320301  0.96389561    -0.05500
C1192       C  0.09680462  0.90146625  0.97175190     0.00500
C1193       C  0.11076175  0.88091907  0.43472611    -0.08100
C1194       C  0.09222186  0.86448694  0.39155670    -0.05500
C1195       C  0.06153998  0.86037770  0.38903630     0.00400
C1196       C  0.54864353  0.87345026  0.47254532    -0.08000
C1197       C  0.52015035  0.87644705  0.45792365     0.62400
H1198       H  0.56021175  0.90610731  0.03615306     0.13100
H1199       H  0.09898256  0.84984804  0.36604796     0.13100
C1200       C  0.13890108  0.87600321  0.44556750     0.62600
F1201       F  0.51676203  0.89674086  0.98482652    -0.22600
F1202       F  0.49263791  0.84607072  0.46369834    -0.19900
F1203       F  0.52626893  0.88991967  0.40261074    -0.19600
F1204       F  0.13852954  0.86913983  0.50278714    -0.19600
F1205       F  0.16743583  0.90374635  0.42512357    -0.20000
F1206       F  0.13774739  0.84993954  0.41875777    -0.22600
C1207       C  0.05568142  0.86780188  0.19831515    -0.05500
C1208       C  0.08334418  0.86887084  0.17221131     0.00500
C1209       C  0.09207747  0.84615941  0.19408351    -0.08100
C1210       C  0.07586157  0.82694763  0.24602018    -0.05500
C1211       C  0.04921480  0.82732026  0.27384187     0.00400
C1212       C  0.53341926  0.83912812  0.29776480    -0.08000
C1213       C  0.49940770  0.83270359  0.31042785     0.62400
H1214       H  0.04816748  0.88431617  0.18128671     0.13100
H1215       H  0.08425251  0.81172107  0.26513371     0.13100
C1216       C  0.11813276  0.84140227  0.16355785     0.62600
F1217       F  0.49984372  0.86204096  0.31567730    -0.22600
F1218       F  0.48329291  0.81221764  0.35931561    -0.19900
F1219       F  0.48243130  0.81823428  0.26582044    -0.19600
F1220       F  0.14540961  0.85624747  0.19053170    -0.19600
F1221       F  0.12541900  0.85351974  0.10722051    -0.20000
F1222       F  0.10816742  0.80860443  0.16411313    -0.22600
C1223       C  0.98907559  0.73986209  0.11856688    -0.05500
C1224       C  0.95894325  0.71750960  0.10459974     0.00500
C1225       C  0.94644256  0.68394612  0.12110940    -0.08100
C1226       C  0.96581123  0.67343530  0.14580268    -0.05500
C1227       C  0.99801043  0.69514246  0.15414643     0.00400
C1228       C  0.00923526  0.72967413  0.14190388    -0.08000
C1229       C  0.04274203  0.75646923  0.14966653     0.62400
H1230       H  0.99793388  0.76545769  0.10520674     0.13100
H1231       H  0.95589706  0.64731561  0.15294436     0.13100
C1232       C  0.41599703  0.65550064  0.10866003     0.62600
F1233       F  0.04792840  0.78585593  0.64756081    -0.22600
F1234       F  0.06550916  0.75168874  0.11962213    -0.19900
F1235       F  0.04654109  0.75687779  0.20639710    -0.19600
F1236       F  0.40936552  0.62473585  0.12881119    -0.19600
F1237       F  0.41655563  0.65552046  0.05062382    -0.20000
F1238       F  0.39142033  0.66032642  0.13045355    -0.22600
C1239       C  0.24073490  0.77553895  0.30298003    -0.05500
C1240       C  0.22170191  0.74168302  0.29825063     0.00500
C1241       C  0.23767054  0.72482313  0.27978741    -0.08100
C1242       C  0.27134589  0.74077454  0.27491742    -0.05500
C1243       C  0.29057227  0.77332374  0.28905261     0.00400
C1244       C  0.27400943  0.79006788  0.30780701    -0.08000
C1245       C  0.28856755  0.82038120  0.34067788     0.62400
H1246       H  0.22833004  0.78837503  0.31704440     0.13100
H1247       H  0.28212741  0.72591672  0.26505566     0.13100
C1248       C  0.21993532  0.68868722  0.27119600     0.62600
F1249       F  0.26547805  0.82012806  0.37945650    -0.22600
F1250       F  0.30103398  0.84848162  0.30408683    -0.19900
F1251       F  0.31207772  0.82165772  0.37170373    -0.19600
F1252       F  0.18747782  0.67670758  0.27231296    -0.19600
F1253       F  0.22516527  0.67119301  0.31321197    -0.20000
F1254       F  0.23101448  0.68382804  0.21918622    -0.22600
C1255       C  0.10039702  0.66648054  0.45324722    -0.05500
C1256       C  0.12098953  0.69916427  0.43200779     0.00500
C1257       C  0.11787367  0.72422739  0.45767780    -0.08100
C1258       C  0.09805518  0.71603676  0.50918591    -0.05500
C1259       C  0.07670326  0.68029273  0.03192636     0.00400
C1260       C  0.07754576  0.65478178  0.00372549    -0.08000
C1261       C  0.05595657  0.61886611  0.02371139     0.62400
H1262       H  0.10350595  0.64745131  0.43545832     0.13100
H1263       H  0.09735232  0.73520348  0.53183291     0.13100
C1264       C  0.13689630  0.75967980  0.43225345     0.62600
F1265       F  0.02565794  0.61281155  0.04355819    -0.22600
F1266       F  0.06914113  0.61004456  0.06568523    -0.19900
F1267       F  0.05265516  0.59939381  0.97982782    -0.19600
F1268       F  0.13073612  0.76153050  0.37686521    -0.19600
F1269       F  0.16932363  0.77158524  0.43302107    -0.20000
F1270       F  0.12874338  0.77976525  0.46170192    -0.22600
C1271       C  0.09687877  0.66649544  0.25481898    -0.05500
C1272       C  0.09688706  0.69263185  0.22414267     0.00500
C1273       C  0.12217703  0.72494547  0.22903454    -0.08100
C1274       C  0.14433115  0.73016273  0.26850356    -0.05500
C1275       C  0.14289677  0.70413820  0.30192362     0.00400
C1276       C  0.11948865  0.67148693  0.29302350    -0.08000
C1277       C  0.11744194  0.64081370  0.32095334     0.62400
H1278       H  0.07850232  0.64164969  0.24971291     0.13100
H1279       H  0.16230859  0.75486319  0.27523007     0.13100
C1280       C  0.12482804  0.75425489  0.19571105     0.62600
F1281       F  0.08737083  0.62142407  0.35051499    -0.22600
F1282       F  0.14039724  0.64746083  0.35728118    -0.19900
F1283       F  0.12155895  0.62304613  0.27963895    -0.19600
F1284       F  0.10244721  0.76099968  0.22143842    -0.19600
F1285       F  0.15490184  0.78164648  0.19491632    -0.20000
F1286       F  0.11934389  0.74790757  0.14019976    -0.22600
C1287       C  0.19777871  0.43827440  0.30238146    -0.05500
C1288       C  0.23048878  0.45501211  0.30834486     0.00500
C1289       C  0.24720686  0.48950429  0.29808517    -0.08100
C1290       C  0.23037837  0.50603944  0.28792028    -0.05500
C1291       C  0.19662689  0.49002012  0.29106814     0.00400
C1292       C  0.17983773  0.45461293  0.29741543    -0.08000
C1293       C  0.14359773  0.43296697  0.30480365     0.62400
H1294       H  0.19173957  0.91565577  0.30440071     0.13100
H1295       H  0.24393025  0.53264692  0.28321465     0.13100
C1296       C  0.28228302  0.51044783  0.30535982     0.62600
F1297       F  0.14512201  0.90429014  0.26711286    -0.22600
F1298       F  0.13117287  0.43669501  0.25659238    -0.19900
F1299       F  0.13061859  0.44039838  0.35199641    -0.19600
F1300       F  0.29718914  0.53217102  0.25798612    -0.19600
F1301       F  0.29751811  0.49239997  0.31192908    -0.20000
F1302       F  0.28545341  0.52794382  0.35202251    -0.22600
C1303       C  0.25513538  0.76885723  0.14682628    -0.05500
C1304       C  0.28889151  0.78640538  0.13381970     0.00500
C1305       C  0.30276867  0.76894161  0.10603685    -0.08100
C1306       C  0.28254727  0.73569234  0.09560281    -0.05500
C1307       C  0.24902605  0.72100795  0.10031765     0.00400
C1308       C  0.23525256  0.73869627  0.12558894    -0.08000
C1309       C  0.20025587  0.72926595  0.12671365     0.62400
H1310       H  0.24325282  0.78111755  0.16551023     0.13100
H1311       H  0.29277957  0.72232521  0.07501740     0.12700
C1312       C  0.33795168  0.78479825  0.08218838     0.62600
F1313       F  0.19781838  0.75624446  0.10852127    -0.22600
F1314       F  0.18556435  0.71860972  0.18153152    -0.19900
F1315       F  0.18396601  0.70525522  0.09211202    -0.19600
F1316       F  0.35710498  0.79214077  0.12543502    -0.19600
F1317       F  0.34691439  0.81272144  0.04676426    -0.20000
F1318       F  0.34391382  0.76411234  0.05033479    -0.22600
C1319       C  0.30893702  0.91426255  0.43280002    -0.05500
C1320       C  0.27585526  0.89917841  0.42878694     0.00500
C1321       C  0.25467497  0.87126980  0.46629785    -0.08100
C1322       C  0.26430403  0.86269852  0.01159278    -0.05500
C1323       C  0.29716313  0.88027576  0.01742785     0.00400
C1324       C  0.31813724  0.90525837  0.97449414    -0.08000
C1325       C  0.35415259  0.92134359  0.97310990     0.62400
H1326       H  0.32495245  0.93577111  0.40414643     0.13100
H1327       H  0.24859009  0.84255472  0.04301406     0.13100
C1328       C  0.21944714  0.85091012  0.45852325     0.62600
F1329       F  0.37362271  0.93838108  0.42625995    -0.22600
F1330       F  0.36309829  0.89759013  0.97623474    -0.19900
F1331       F  0.36388667  0.93992978  0.01819532    -0.19600
F1332       F  0.21699368  0.83712636  0.40786680    -0.19600
F1333       F  0.20500004  0.86999045  0.45780401    -0.20000
F1334       F  0.20275758  0.82573848  0.50137183    -0.22600
C1335       C  0.29740632  0.92568208  0.28473329    -0.05500
C1336       C  0.26472912  0.91007487  0.30303243     0.00500
C1337       C  0.24361242  0.88260765  0.27563909    -0.08100
C1338       C  0.25625566  0.87241201  0.23003098    -0.05500
C1339       C  0.28941496  0.88749140  0.21233758     0.00400
C1340       C  0.31030235  0.91463948  0.24143338    -0.08000
C1341       C  0.34619196  0.93218335  0.22889615     0.62400
H1342       H  0.30953315  0.44517132  0.30458437     0.13100
H1343       H  0.23993735  0.85147396  0.20916765     0.13100
C1344       C  0.20788507  0.86272868  0.29307752     0.62600
F1345       F  0.35857387  0.44979257  0.27402956    -0.22600
F1346       F  0.35464381  0.95209496  0.17931959    -0.19900
F1347       F  0.35647731  0.90971524  0.22490237    -0.19600
F1348       F  0.19845951  0.87152386  0.34247874    -0.19600
F1349       F  0.19860037  0.82978404  0.30112098    -0.20000
F1350       F  0.19221305  0.86705829  0.25038516    -0.22600
C1351       C  0.30496715  0.82314661  0.63368872     0.86800
C1352       C  0.34130428  0.84536303  0.63644575    -0.53400
C1353       C  0.35244679  0.87847948  0.62643100     0.09700
C1354       C  0.32537630  0.88653756  0.61791872     0.20700
C1355       C  0.29027555  0.83648874  0.67866539    -0.54200
C1356       C  0.30063833  0.86946699  0.67147736     0.09800
C1357       C  0.29905458  0.83442333  0.57699637    -0.53700
C1358       C  0.30906469  0.86690568  0.56816898     0.10400
H1359       H  0.35681677  0.83649219  0.64864545     0.14900
H1360       H  0.33319470  0.91286522  0.61038041     0.00700
H1361       H  0.27344562  0.82120624  0.71454365     0.15200
H1362       H  0.28642631  0.81734675  0.54641611     0.15000
N1363       N  0.25015863  0.91844164  0.84989394    -0.03200
C1364       C  0.23811531  0.93939717  0.85045992    -0.00600
C1365       C  0.24090047  0.45097413  0.90626891    -0.23500
C1366       C  0.25034923  0.93634880  0.93665925    -0.23700
C1367       C  0.25784781  0.91728082  0.90358692    -0.00700
H1368       H  0.23416453  0.46878697  0.91895470     0.13100
H1369       H  0.25522549  0.94103586  0.97958529     0.13100
N1370       N  0.16407068  0.71104687  0.85260924    -0.03200
C1371       C  0.19672099  0.72776743  0.85317631    -0.00600
C1372       C  0.20414291  0.73074385  0.90813804    -0.23500
C1373       C  0.17625952  0.71588812  0.94300418    -0.23700
C1374       C  0.15216995  0.70505876  0.90846643    -0.00700
H1375       H  0.22777555  0.74511933  0.92079692     0.13100
H1376       H  0.17373798  0.71609096  0.98854331     0.13100
C1377       C  0.02340177  0.67990768  0.65928751     0.86800
C1378       C  0.00902695  0.64212606  0.67139824    -0.53400
C1379       C  0.03078744  0.63149963  0.66302868     0.09700
C1380       C  0.06518155  0.65959176  0.64393821     0.20700
C1381       C  0.05018062  0.69344624  0.69913635    -0.54200
C1382       C  0.07260600  0.68356331  0.69040142     0.09800
C1383       C  0.04067610  0.68765900  0.59930347    -0.53700
C1384       C  0.06209907  0.67725190  0.59057087     0.10400
H1385       H  0.98423699  0.62506697  0.68697151     0.14900
H1386       H  0.08313346  0.65151245  0.63664729     0.00700
H1387       H  0.04955504  0.70639344  0.73514935     0.15200
H1388       H  0.03583342  0.70025418  0.56531826     0.15000
C1389       C  0.15703916  0.94709160  0.57789278     0.86800
C1390       C  0.13831731  0.96561178  0.58959504    -0.53400
C1391       C  0.10576165  0.94637032  0.58931824     0.09700
C1392       C  0.09514812  0.91046074  0.57816726     0.20700
C1393       C  0.14043469  0.91803599  0.62454977    -0.54200
C1394       C  0.10826333  0.89848089  0.62507957     0.09800
C1395       C  0.14678780  0.93268280  0.52201385    -0.53700
C1396       C  0.11486282  0.91307837  0.52163703     0.10400
H1397       H  0.14845153  0.99047931  0.60015247     0.14900
H1398       H  0.06903351  0.89429870  0.57767483     0.00700
H1399       H  0.15322766  0.91616887  0.65847628     0.15200
H1400       H  0.16380225  0.93963126  0.48458295     0.15000
N1401       N  0.53517700  0.80663485  0.88147924    -0.03200
C1402       C  0.52427901  0.77426875  0.89600159    -0.00600
C1403       C  0.51787159  0.76722355  0.95379468    -0.23500
C1404       C  0.52406170  0.79555407  0.97625112    -0.23700
C1405       C  0.53603407  0.81981019  0.93160242    -0.00700
H1406       H  0.51128850  0.74422135  0.97723786     0.13100
H1407       H  0.52517687  0.79916609  0.02083037     0.13100
N1408       N  0.05906753  0.98763339  0.62168025    -0.27000
N1409       N  0.03622630  0.95710436  0.61830837    -0.34800
C1410       C  0.04938278  0.93848462  0.60632373     0.01400
C1411       C  0.08233306  0.95777733  0.60204943     0.07400
C1412       C  0.08771095  0.98897044  0.61218092    -0.05700
H1413       H  0.53170627  0.90753441  0.64828378     0.08100
H1414       H  0.11065526  0.01101853  0.61213589     0.09300
Cu1415     Cu  0.48409284  0.93741111  0.65488920     0.44200
Cu1416     Cu  0.04283748  0.51831196  0.65551516     0.42000
Cu1417     Cu  0.46159535  0.50056087  0.64218116     0.43900
N1418       N  0.43849169  0.92774567  0.64134880    -0.34400
N1419       N  0.43158264  0.95138277  0.63324693    -0.28600
C1420       C  0.40081150  0.93781289  0.62281496    -0.04700
C1421       C  0.38703286  0.90380576  0.62715269     0.07500
C1422       C  0.41209953  0.89853635  0.63810340     0.01300
H1423       H  0.38943992  0.95192390  0.61360531     0.08900
H1424       H  0.41119285  0.87517830  0.64455167     0.08000
N1425       N  0.99547736  0.54291681  0.65430936    -0.35800
N1426       N  0.02516652  0.55081821  0.66228990    -0.28000
C1427       C  0.04168776  0.58293715  0.67058253    -0.03200
C1428       C  0.02163989  0.59612694  0.66730295     0.05400
C1429       C  0.99246715  0.56982642  0.65775851     0.03500
H1430       H  0.06695171  0.59611040  0.67550878     0.08600
H1431       H  0.97117860  0.57070532  0.65042493     0.07400
C1432       C  0.32928209  0.78995580  0.79433017     0.86800
C1433       C  0.34267109  0.77427131  0.75258958    -0.53400
C1434       C  0.37372669  0.78224989  0.75576478     0.09700
C1435       C  0.38964846  0.80684579  0.79997552     0.20700
C1436       C  0.33643232  0.78138726  0.85256789    -0.54200
C1437       C  0.36779364  0.79043009  0.85631351     0.09800
C1438       C  0.35317825  0.82694417  0.77969039    -0.53700
C1439       C  0.38464328  0.83607751  0.78400059     0.10400
H1440       H  0.32931896  0.75918791  0.72064630     0.14900
H1441       H  0.41492987  0.81339723  0.80219971     0.00700
H1442       H  0.31783266  0.76843348  0.88787880     0.15200
H1443       H  0.34628508  0.84440750  0.76546379     0.15000
N1444       N  0.42490814  0.73985240  0.57164505    -0.03200
C1445       C  0.94945801  0.72934962  0.56647064    -0.00600
C1446       C  0.95698786  0.72525963  0.51146936    -0.23500
C1447       C  0.43333887  0.73051220  0.98043025    -0.23700
C1448       C  0.41809144  0.74255726  0.51767783    -0.00700
H1449       H  0.97014260  0.71310379  0.49819114     0.13100
H1450       H  0.43074500  0.72794457  0.93602740     0.13100
C1451       C  0.18488310  0.51481751  0.79293889     0.86800
C1452       C  0.14891769  0.50345446  0.79486929    -0.53400
C1453       C  0.14129749  0.52767311  0.79933115     0.09700
C1454       C  0.17077308  0.56183607  0.80192273     0.20700
C1455       C  0.19995681  0.54214431  0.74304018    -0.54200
C1456       C  0.19322582  0.56715425  0.74758130     0.09800
C1457       C  0.19452166  0.53307800  0.84688557    -0.53700
C1458       C  0.18779597  0.55795271  0.85162553     0.10400
H1459       H  0.13040626  0.47948908  0.79159572     0.14900
H1460       H  0.16480543  0.58165429  0.80622613     0.00700
H1461       H  0.21339606  0.54046330  0.70603130     0.15200
H1462       H  0.20421792  0.52530492  0.87988337     0.15000
N1463       N  0.21733258  0.66319973  0.56158529    -0.03200
C1464       C  0.23304405  0.69685713  0.55756331    -0.00600
C1465       C  0.23748502  0.70901052  0.50197916    -0.23500
C1466       C  0.22385635  0.68235406  0.97101061    -0.23700
C1467       C  0.21125517  0.65478226  0.50767447    -0.00700
H1468       H  0.25117744  0.73461744  0.48596723     0.13100
H1469       H  0.22493068  0.68318224  0.92535248     0.13100
C1470       C  0.45025321  0.64280764  0.84037184     0.86800
C1471       C  0.46675561  0.62168170  0.83392535    -0.53400
C1472       C  0.44606696  0.58892659  0.83208228     0.09700
C1473       C  0.41067127  0.58000397  0.83757129     0.20700
C1474       C  0.43080749  0.63434762  0.78977351    -0.54200
C1475       C  0.40977669  0.60194354  0.78905263     0.09800
C1476       C  0.42561802  0.62609110  0.89385602    -0.53700
C1477       C  0.40478408  0.59302207  0.89319836     0.10400
H1478       H  0.49236518  0.63152862  0.82579704     0.14900
H1479       H  0.39691478  0.05511139  0.83270425     0.00700
H1480       H  0.43590058  0.65165745  0.75385641     0.15200
H1481       H  0.42517893  0.63953023  0.92958810     0.15000
N1482       N  0.31760311  0.02225898  0.58962976    -0.03200
C1483       C  0.28946430  0.99316934  0.60181098    -0.00600
C1484       C  0.28841137  0.97853334  0.65441590    -0.23500
C1485       C  0.31700453  0.99730474  0.67373196    -0.23700
C1486       C  0.33416044  0.02383910  0.63422167    -0.00700
H1487       H  0.26819272  0.95766562  0.67857019     0.13100
H1488       H  0.32353292  0.99380065  0.71486006     0.13100
N1489       N  0.45828312  0.91629854  0.77672304    -0.27000
N1490       N  0.43616384  0.92505600  0.78303717    -0.34800
C1491       C  0.40702579  0.89823549  0.78465092     0.01400
C1492       C  0.41069922  0.87108955  0.77810913     0.07400
C1493       C  0.44365857  0.88361143  0.77282362    -0.05700
H1494       H  0.38474074  0.89824738  0.79329781     0.08100
H1495       H  0.45605169  0.86980899  0.76859098     0.09300
Cu1496     Cu  0.44681832  0.97308294  0.79173158     0.44200
Cu1497     Cu  0.00771197  0.95180948  0.76154938     0.42000
Cu1498     Cu  0.03172130  0.54305866  0.80645255     0.43900
N1499       N  0.46151618  0.02190037  0.80275192    -0.34400
N1500       N  0.48642632  0.54096182  0.81138200    -0.28600
C1501       C  0.48737612  0.56931533  0.82164342    -0.04700
C1502       C  0.45688183  0.56496001  0.82039171     0.07500
C1503       C  0.44269103  0.03546678  0.80670867     0.01300
H1504       H  0.50867331  0.59126333  0.83025188     0.08900
H1505       H  0.41745197  0.02245648  0.80176721     0.08000
N1506       N  0.06374390  0.52512504  0.79999914    -0.35800
N1507       N  0.05569112  0.49506940  0.78727370    -0.28000
C1508       C  0.08173109  0.49160165  0.78557843    -0.03200
C1509       C  0.10767528  0.52071651  0.79780822     0.05400
C1510       C  0.09524173  0.54136706  0.80684370     0.03500
H1511       H  0.08141678  0.96615868  0.76016125     0.08600
H1512       H  0.10804809  0.56623292  0.81812935     0.07400
C1513       C  0.36184661  0.58628061  0.96892521    -0.05500
C1514       C  0.37873473  0.57238563  0.94155492     0.00500
C1515       C  0.37086266  0.54003871  0.96262581    -0.08100
C1516       C  0.34684540  0.52151068  0.50902431    -0.05500
C1517       C  0.33394820  0.03782345  0.53366317     0.00400
C1518       C  0.34021941  0.06949537  0.01366878    -0.08000
C1519       C  0.32507763  0.08770636  0.04133162     0.62400
H1520       H  0.36713403  0.61064696  0.95340286     0.13100
H1521       H  0.34135489  0.49728493  0.52571395     0.13100
C1522       C  0.39027470  0.52398463  0.94412798     0.62600
F1523       F  0.34869767  0.11675902  0.05785845    -0.22600
F1524       F  0.30767576  0.07255845  0.59076542    -0.19900
F1525       F  0.30893705  0.09485561  0.00260138    -0.19600
F1526       F  0.42245276  0.54692839  0.93417267    -0.19600
F1527       F  0.37937098  0.50803151  0.89648672    -0.20000
F1528       F  0.39103430  0.50230371  0.49100023    -0.22600
C1529       C  0.40531243  0.57125883  0.70624429    -0.05500
C1530       C  0.39406752  0.58843651  0.73861228     0.00500
C1531       C  0.36697518  0.59010574  0.72513519    -0.08100
C1532       C  0.35099360  0.57298924  0.68049563    -0.05500
C1533       C  0.35948956  0.55200559  0.65339991     0.00400
C1534       C  0.38792492  0.55214406  0.66458092    -0.08000
C1535       C  0.40007660  0.53160182  0.63573855     0.62400
H1536       H  0.42665260  0.57096112  0.71635467     0.13100
H1537       H  0.32891771  0.07148511  0.67530868     0.13100
C1538       C  0.35378014  0.60790122  0.76013668     0.62600
F1539       F  0.40632622  0.51408670  0.67613383    -0.22600
F1540       F  0.42803951  0.55214540  0.60107183    -0.19900
F1541       F  0.38191220  0.01455580  0.59402760    -0.19600
F1542       F  0.37561976  0.64098509  0.75381047    -0.19600
F1543       F  0.34830509  0.59641387  0.81672278    -0.20000
F1544       F  0.32471334  0.10122661  0.74913759    -0.22600
C1545       C  0.16778222  0.58208895  0.92333237    -0.05500
C1546       C  0.19318078  0.57771919  0.90194322     0.00500
C1547       C  0.22286394  0.59459493  0.92531612    -0.08100
C1548       C  0.22575533  0.61559511  0.96820238    -0.05500
C1549       C  0.20106967  0.62199042  0.98607443     0.00400
C1550       C  0.17130638  0.60447002  0.96344707    -0.08000
C1551       C  0.14242228  0.61051551  0.48048489     0.62400
H1552       H  0.14503317  0.56838580  0.90664377     0.13100
H1553       H  0.24858361  0.62976323  0.98445826     0.13100
C1554       C  0.25243344  0.59323561  0.90228233     0.62600
F1555       F  0.11798434  0.59599854  0.44644231    -0.22600
F1556       F  0.15213497  0.64354442  0.47756960    -0.19900
F1557       F  0.12997020  0.59634495  0.53505346    -0.19600
F1558       F  0.25656546  0.59779603  0.84388240    -0.19600
F1559       F  0.24942423  0.56335378  0.91955281    -0.20000
F1560       F  0.27997602  0.61751998  0.92122352    -0.22600
C1561       C  0.17835842  0.60221795  0.69089024    -0.05500
C1562       C  0.20202656  0.59406054  0.70109980     0.00500
C1563       C  0.23209132  0.61118066  0.66630033    -0.08100
C1564       C  0.23606550  0.63375849  0.62088555    -0.05500
C1565       C  0.21190991  0.64091845  0.61028167     0.00400
C1566       C  0.18258674  0.62505707  0.64624722    -0.08000
C1567       C  0.15521871  0.63168416  0.64044456     0.62400
H1568       H  0.15543737  0.58962814  0.71686710     0.13100
H1569       H  0.25827257  0.64602214  0.59275153     0.13100
C1570       C  0.26043014  0.60651158  0.67517378     0.62600
F1571       F  0.12626073  0.60255332  0.64837904    -0.22600
F1572       F  0.15743390  0.64666656  0.58817342    -0.19900
F1573       F  0.15516658  0.65171517  0.68102573    -0.19600
F1574       F  0.25884447  0.58164357  0.64434464    -0.19600
F1575       F  0.26101031  0.59907934  0.73164365    -0.20000
F1576       F  0.28906397  0.63490112  0.65692279    -0.22600
C1577       C  0.41372349  0.79006578  0.98083253    -0.05500
C1578       C  0.39964250  0.75625170  0.99551284     0.00500
C1579       C  0.37180558  0.73458454  0.97081206    -0.08100
C1580       C  0.36162546  0.74710873  0.92738345    -0.05500
C1581       C  0.37802471  0.78052542  0.90790130     0.00400
C1582       C  0.40311620  0.80274927  0.93784463    -0.08000
C1583       C  0.41970683  0.83953755  0.92381124     0.62400
H1584       H  0.93032242  0.80349861  0.99579669     0.13100
H1585       H  0.34134236  0.73018510  0.90670491     0.13100
C1586       C  0.35313506  0.69285289  0.48407675     0.62600
F1587       F  0.92574505  0.85136482  0.97327229    -0.22600
F1588       F  0.39755803  0.84926165  0.91433808    -0.19900
F1589       F  0.44153895  0.84841781  0.87636661    -0.19600
F1590       F  0.32030032  0.67998228  0.49331227    -0.19600
F1591       F  0.36271504  0.68434234  0.53221703    -0.20000
F1592       F  0.36005340  0.67890535  0.43895457    -0.22600
C1593       C  0.41858261  0.79233679  0.68293619    -0.05500
C1594       C  0.39006278  0.76960218  0.71618135     0.00500
C1595       C  0.37540357  0.73604136  0.70509495    -0.08100
C1596       C  0.38746673  0.72728214  0.65700598    -0.05500
C1597       C  0.41483104  0.75035050  0.62175233     0.00400
C1598       C  0.43145559  0.78328394  0.63620453    -0.08000
C1599       C  0.96757905  0.81197766  0.60559193     0.62400
H1600       H  0.43020997  0.81783488  0.69187244     0.13100
H1601       H  0.37536988  0.70208511  0.64658689     0.13100
C1602       C  0.34701321  0.70880788  0.74285407     0.62600
F1603       F  0.96570320  0.83945510  0.58883641    -0.22600
F1604       F  0.97857995  0.80261947  0.55858261    -0.19900
F1605       F  0.98982987  0.82021111  0.64383182    -0.19600
F1606       F  0.35009976  0.68112391  0.74737240    -0.19600
F1607       F  0.31903895  0.70096174  0.71956341    -0.20000
F1608       F  0.34488941  0.71755123  0.79711022    -0.22600
C1609       C  0.50373043  0.69140076  0.85781128    -0.05500
C1610       C  0.47257400  0.68025964  0.84229801     0.00500
C1611       C  0.46293336  0.70449696  0.83317143    -0.08100
C1612       C  0.48496511  0.73769636  0.83851205    -0.05500
C1613       C  0.51430526  0.74740866  0.85898992     0.00400
C1614       C  0.52455976  0.72423598  0.86613745    -0.08000
C1615       C  0.55644147  0.73244489  0.88665463     0.62400
H1616       H  0.51170761  0.67431448  0.86842284     0.13100
H1617       H  0.47775865  0.75601226  0.83325319     0.13100
C1618       C  0.42981561  0.69713031  0.81930802     0.62600
F1619       F  0.55092370  0.71494782  0.93845499    -0.22600
F1620       F  0.07144460  0.77818782  0.85797775    -0.19900
F1621       F  0.57315399  0.72353760  0.84817460    -0.19600
F1622       F  0.42305240  0.72126832  0.83504824    -0.19600
F1623       F  0.40582433  0.66803418  0.84761677    -0.20000
F1624       F  0.42881678  0.69637828  0.76152719    -0.22600
C1625       C  0.20430904  0.93936959  0.57754487    -0.05500
C1626       C  0.19376349  0.96258092  0.57463702     0.00500
C1627       C  0.21770575  0.99619084  0.56076778    -0.08100
C1628       C  0.25031506  0.00478693  0.55942638    -0.05500
C1629       C  0.25959682  0.98177486  0.57443088     0.00400
C1630       C  0.23620202  0.94807201  0.57970651    -0.08000
C1631       C  0.24301759  0.92003623  0.59017351     0.62400
H1632       H  0.18701125  0.91340413  0.58042118     0.13100
H1633       H  0.26839623  0.02981834  0.55123556     0.13100
C1634       C  0.21027715  0.02354288  0.54890962     0.62600
F1635       F  0.22779034  0.89654844  0.55360061    -0.22600
F1636       F  0.23080081  0.90546249  0.64481219    -0.19900
F1637       F  0.27533872  0.93004496  0.58182164    -0.19600
F1638       F  0.19934148  0.03044407  0.59893839    -0.19600
F1639       F  0.18791122  0.01486748  0.51066429    -0.20000
F1640       F  0.23727806  0.05229407  0.52598311    -0.22600
C1641       C  0.07292800  0.89985868  0.45868067    -0.05500
C1642       C  0.10027856  0.89843585  0.46985135     0.00500
C1643       C  0.10698934  0.88538731  0.93253063    -0.08100
C1644       C  0.08741829  0.86967348  0.89018959    -0.05500
C1645       C  0.05688199  0.86612549  0.89007740     0.00400
C1646       C  0.55060562  0.87299021  0.97084236    -0.08000
C1647       C  0.52226170  0.87542729  0.95374091     0.62400
H1648       H  0.56073074  0.90751914  0.53669393     0.13100
H1649       H  0.09365274  0.85555766  0.86235365     0.13100
C1650       C  0.13674552  0.88226589  0.93619497     0.62600
F1651       F  0.51472040  0.89668209  0.49219303    -0.22600
F1652       F  0.49485314  0.84500575  0.96155530    -0.19900
F1653       F  0.52843210  0.88706937  0.89729825    -0.19600
F1654       F  0.13934515  0.87452349  0.99148467    -0.19600
F1655       F  0.16358102  0.91132993  0.91443423    -0.20000
F1656       F  0.13599785  0.85771916  0.90511103    -0.22600
C1657       C  0.06188647  0.87721149  0.69980571    -0.05500
C1658       C  0.08760706  0.87442538  0.67500689     0.00500
C1659       C  0.09307771  0.84967686  0.69913207    -0.08100
C1660       C  0.07377101  0.83019693  0.74928206    -0.05500
C1661       C  0.04857819  0.83385556  0.77493616     0.00400
C1662       C  0.53722922  0.83990482  0.79418225    -0.08000
C1663       C  0.50276129  0.83223889  0.80549697     0.62400
H1664       H  0.05738798  0.89583734  0.68173704     0.13100
H1665       H  0.07896730  0.81270248  0.76974521     0.13100
C1666       C  0.11850272  0.84306438  0.67160936     0.62600
F1667       F  0.50178973  0.86108829  0.80653194    -0.22600
F1668       F  0.48724694  0.81331606  0.85602878    -0.19900
F1669       F  0.48616119  0.81538549  0.76209193    -0.19600
F1670       F  0.14861456  0.86660875  0.68215934    -0.19600
F1671       F  0.11711887  0.84237941  0.61384766    -0.20000
F1672       F  0.11400335  0.81327996  0.69266567    -0.22600
C1673       C  0.98896188  0.73837665  0.63249759    -0.05500
C1674       C  0.95984972  0.71662298  0.61375896     0.00500
C1675       C  0.94893801  0.68271724  0.62141965    -0.08100
C1676       C  0.96863552  0.67183217  0.64391690    -0.05500
C1677       C  0.99959766  0.69343912  0.65864736     0.00400
C1678       C  0.00973049  0.72796679  0.65257270    -0.08000
C1679       C  0.04294821  0.75479402  0.66259581     0.62400
H1680       H  0.99691023  0.76424347  0.62476382     0.13100
H1681       H  0.96040849  0.64601962  0.64502751     0.13100
C1682       C  0.41433549  0.65190821  0.60377144     0.62600
F1683       F  0.04831665  0.78730135  0.13073789    -0.22600
F1684       F  0.06644390  0.75184446  0.63086781    -0.19900
F1685       F  0.04645271  0.75324678  0.71921918    -0.19600
F1686       F  0.41022585  0.62119656  0.61706673    -0.19600
F1687       F  0.41365962  0.65475500  0.54606778    -0.20000
F1688       F  0.38877658  0.65343384  0.63088363    -0.22600
C1689       C  0.24287554  0.77918141  0.81418014    -0.05500
C1690       C  0.22372484  0.74558948  0.80703564     0.00500
C1691       C  0.23951454  0.72921700  0.78533180    -0.08100
C1692       C  0.27316728  0.74515671  0.77941598    -0.05500
C1693       C  0.29280214  0.77760963  0.79362050     0.00400
C1694       C  0.27654321  0.79417011  0.81518750    -0.08000
C1695       C  0.29253053  0.82539766  0.84557674     0.62400
H1696       H  0.23054089  0.79157762  0.83077767     0.13100
H1697       H  0.28358911  0.73016904  0.76832535     0.13100
C1698       C  0.22185058  0.69347785  0.77409654     0.62600
F1699       F  0.27039477  0.82797673  0.88252110    -0.22600
F1700       F  0.30655611  0.85275074  0.80696293    -0.19900
F1701       F  0.31518935  0.82565622  0.87787033    -0.19600
F1702       F  0.18969975  0.68206576  0.77247267    -0.19600
F1703       F  0.22574463  0.67481726  0.81589456    -0.20000
F1704       F  0.23406750  0.68957381  0.72230628    -0.22600
C1705       C  0.10015016  0.66326854  0.95618935    -0.05500
C1706       C  0.11962707  0.69585166  0.93331341     0.00500
C1707       C  0.11419023  0.72044897  0.95511380    -0.08100
C1708       C  0.09323531  0.71235030  0.00498944    -0.05500
C1709       C  0.08020849  0.68345996  0.53371556     0.00400
C1710       C  0.07861230  0.65807119  0.50193500    -0.08000
C1711       C  0.05522931  0.62218904  0.51923913     0.62400
H1712       H  0.10485469  0.64469397  0.94069069     0.13100
H1713       H  0.09102230  0.73148428  0.02507687     0.13100
C1714       C  0.13238534  0.75565001  0.92833994     0.62600
F1715       F  0.02604552  0.61783499  0.54233256    -0.22600
F1716       F  0.06788150  0.61040459  0.55779588    -0.19900
F1717       F  0.04960883  0.60405848  0.47286074    -0.19600
F1718       F  0.12851315  0.75622140  0.87151413    -0.19600
F1719       F  0.16462271  0.76950594  0.93395393    -0.20000
F1720       F  0.12139104  0.77487476  0.95319266    -0.22600
C1721       C  0.09924372  0.66535830  0.75809910    -0.05500
C1722       C  0.09902906  0.69137287  0.72748629     0.00500
C1723       C  0.12422190  0.72375038  0.73204655    -0.08100
C1724       C  0.14646053  0.72927938  0.77138372    -0.05500
C1725       C  0.14493755  0.70347326  0.80546621     0.00400
C1726       C  0.12191459  0.67069119  0.79637967    -0.08000
C1727       C  0.12085416  0.64034754  0.82345262     0.62400
H1728       H  0.08114709  0.64043307  0.75268573     0.13100
H1729       H  0.16438889  0.75404234  0.77784061     0.13100
C1730       C  0.12673951  0.75264833  0.69766743     0.62600
F1731       F  0.09103597  0.62014119  0.85327466    -0.22600
F1732       F  0.14415904  0.64746889  0.85922854    -0.19900
F1733       F  0.12548223  0.62330261  0.78136036    -0.19600
F1734       F  0.10229077  0.75741210  0.71933411    -0.19600
F1735       F  0.15557754  0.78105175  0.70057977    -0.20000
F1736       F  0.12407459  0.74663586  0.64137353    -0.22600
C1737       C  0.19791953  0.43783095  0.80129234    -0.05500
C1738       C  0.23062709  0.45421206  0.80746344     0.00500
C1739       C  0.24783918  0.48868978  0.79591216    -0.08100
C1740       C  0.23147165  0.50560007  0.78488936    -0.05500
C1741       C  0.19776466  0.49014283  0.78900527     0.00400
C1742       C  0.18048544  0.45468778  0.79524036    -0.08000
C1743       C  0.14421710  0.43350688  0.80111068     0.62400
H1744       H  0.18630664  0.91213192  0.79799707     0.13100
H1745       H  0.24539241  0.53218895  0.77939599     0.13100
C1746       C  0.28287718  0.50948690  0.80357258     0.62600
F1747       F  0.13645290  0.90085670  0.78096652    -0.22600
F1748       F  0.13246008  0.43895952  0.75326380    -0.19900
F1749       F  0.13101655  0.43987977  0.84933409    -0.19600
F1750       F  0.29825450  0.53084672  0.75583925    -0.19600
F1751       F  0.29774346  0.49123622  0.81183696    -0.20000
F1752       F  0.28590813  0.52748739  0.84947514    -0.22600
C1753       C  0.25496484  0.76784440  0.64819095    -0.05500
C1754       C  0.28884979  0.78478064  0.63690031     0.00500
C1755       C  0.30250505  0.76685726  0.61010476    -0.08100
C1756       C  0.28193449  0.73386537  0.59869890    -0.05500
C1757       C  0.24862028  0.72022682  0.60094766     0.00400
C1758       C  0.23507129  0.73828309  0.62532480    -0.08000
C1759       C  0.20049424  0.72996166  0.62372794     0.62400
H1760       H  0.24320613  0.78037896  0.66622479     0.13100
H1761       H  0.29191539  0.72009471  0.57881642     0.12700
C1762       C  0.33775509  0.78215624  0.58725741     0.62600
F1763       F  0.19947864  0.75757260  0.60422201    -0.22600
F1764       F  0.18463308  0.71956117  0.67780161    -0.19900
F1765       F  0.18436463  0.70616334  0.58860935    -0.19600
F1766       F  0.35674490  0.79031710  0.63065556    -0.19600
F1767       F  0.34700938  0.80955853  0.55027121    -0.20000
F1768       F  0.34367466  0.76069112  0.55771283    -0.22600
C1769       C  0.30480610  0.91486396  0.93183944    -0.05500
C1770       C  0.27161914  0.89840976  0.92852223     0.00500
C1771       C  0.25139392  0.87053459  0.96670214    -0.08100
C1772       C  0.26663093  0.86242170  0.51165422    -0.05500
C1773       C  0.29935715  0.87910091  0.51867116     0.00400
C1774       C  0.32121089  0.90371633  0.47604775    -0.08000
C1775       C  0.35706461  0.91842219  0.47563240     0.62400
H1776       H  0.32002977  0.93648926  0.90290652     0.13100
H1777       H  0.25027920  0.84230448  0.54261236     0.13100
C1778       C  0.21619618  0.84900047  0.95977842     0.62600
F1779       F  0.36987707  0.94170583  0.92378304    -0.22600
F1780       F  0.36463643  0.89366472  0.47974683    -0.19900
F1781       F  0.36718111  0.93706463  0.52062299    -0.19600
F1782       F  0.21394732  0.83599477  0.90841727    -0.19600
F1783       F  0.20040593  0.86680645  0.96121264    -0.20000
F1784       F  0.20072018  0.82320665  0.00184218    -0.22600
C1785       C  0.29400504  0.92391732  0.78401671    -0.05500
C1786       C  0.26119146  0.90745297  0.80147885     0.00500
C1787       C  0.24101441  0.87937132  0.77433291    -0.08100
C1788       C  0.25475398  0.86939356  0.73003476    -0.05500
C1789       C  0.28808782  0.88550603  0.71301072     0.00400
C1790       C  0.30796119  0.91346367  0.74143335    -0.08000
C1791       C  0.34388207  0.93252064  0.72891878     0.62400
H1792       H  0.30970933  0.44486195  0.80504421     0.13100
H1793       H  0.23915464  0.84788227  0.70961703     0.13100
C1794       C  0.20524647  0.85838246  0.79109958     0.62600
F1795       F  0.35894084  0.45227551  0.76867492    -0.22600
F1796       F  0.35164967  0.95183001  0.67871844    -0.19900
F1797       F  0.35567244  0.91124286  0.72613633    -0.19600
F1798       F  0.19452258  0.86814761  0.83787561    -0.19600
F1799       F  0.19750076  0.82610365  0.80331779    -0.20000
F1800       F  0.18931371  0.85983896  0.74633434    -0.22600
C1801       C  0.80261550  0.31941137  0.12446249     0.86800
C1802       C  0.83909206  0.34174764  0.12541309    -0.53400
C1803       C  0.84994052  0.37479151  0.11584135     0.09700
C1804       C  0.82270308  0.38275524  0.11042036     0.20700
C1805       C  0.78870757  0.33242517  0.17136808    -0.54200
C1806       C  0.79917492  0.36545869  0.16522094     0.09800
C1807       C  0.79517452  0.33072437  0.06943079    -0.53700
C1808       C  0.80534977  0.36322939  0.06157368     0.10400
H1809       H  0.85483449  0.33279177  0.13615579     0.14900
H1810       H  0.83048689  0.40915472  0.10324804     0.00700
H1811       H  0.77254519  0.31714512  0.20772365     0.15200
H1812       H  0.78185427  0.31385098  0.03909898     0.15000
N1813       N  0.75321553  0.41755191  0.34584263    -0.03200
C1814       C  0.74528234  0.44183520  0.34403077    -0.00600
C1815       C  0.75347623  0.95823691  0.39544250    -0.23500
C1816       C  0.76650503  0.44582705  0.42379733    -0.23700
C1817       C  0.76628785  0.42076039  0.39564394    -0.00700
H1818       H  0.74814911  0.97720757  0.40695489     0.13100
H1819       H  0.77474987  0.45311231  0.46445601     0.13100
N1820       N  0.66802662  0.21481342  0.35121191    -0.03200
C1821       C  0.70022865  0.22540393  0.34672200    -0.00600
C1822       C  0.71004103  0.22595171  0.39956871    -0.23500
C1823       C  0.68410146  0.21588820  0.43835054    -0.23700
C1824       C  0.65887570  0.20976922  0.40826433    -0.00700
H1825       H  0.73457484  0.23588324  0.40806548     0.13100
H1826       H  0.68395052  0.21519617  0.48384039     0.13100
C1827       C  0.52461009  0.18362857  0.16160342     0.86800
C1828       C  0.51117550  0.14620113  0.17610792    -0.53400
C1829       C  0.53326164  0.13611490  0.16812358     0.09700
C1830       C  0.56735510  0.16446925  0.14828984     0.20700
C1831       C  0.55162447  0.19877210  0.20079638    -0.54200
C1832       C  0.57438817  0.18927753  0.19322160     0.09800
C1833       C  0.54184397  0.19073360  0.10149345    -0.53700
C1834       C  0.56384019  0.18088982  0.09388769     0.10400
H1835       H  0.48667872  0.12885999  0.19319783     0.14900
H1836       H  0.58572674  0.15687919  0.14231632     0.00700
H1837       H  0.55113711  0.21265263  0.23546726     0.15200
H1838       H  0.53679674  0.20274259  0.06687800     0.15000
C1839       C  0.65361548  0.44615338  0.13326334     0.86800
C1840       C  0.63423278  0.46404800  0.14315540    -0.53400
C1841       C  0.60155968  0.44362510  0.14503923     0.09700
C1842       C  0.59154512  0.40736031  0.13804778     0.20700
C1843       C  0.63833655  0.41885541  0.18351871    -0.54200
C1844       C  0.60606167  0.39757961  0.18554493     0.09800
C1845       C  0.64210965  0.42912699  0.07978236    -0.53700
C1846       C  0.61029156  0.40847103  0.08212175     0.10400
H1847       H  0.64436702  0.48950805  0.15057646     0.14900
H1848       H  0.56554553  0.39058220  0.13806082     0.00700
H1849       H  0.65199562  0.41896693  0.21734789     0.15200
H1850       H  0.65817590  0.43515658  0.04123618     0.15000
N1851       N  0.03385702  0.30911631  0.34755534    -0.03200
C1852       C  0.02310525  0.27692855  0.36355253    -0.00600
C1853       C  0.01714022  0.27079592  0.42143068    -0.23500
C1854       C  0.02352555  0.29948689  0.44264111    -0.23700
C1855       C  0.03492325  0.32302774  0.39697531    -0.00700
H1856       H  0.01066409  0.24804434  0.44544868     0.13100
H1857       H  0.02470789  0.30375690  0.48696702     0.13100
N1858       N  0.55370425  0.48440161  0.16225333    -0.27000
N1859       N  0.53102195  0.45345376  0.16226628    -0.34800
C1860       C  0.54459515  0.43463617  0.15713518     0.01400
C1861       C  0.57754127  0.45448155  0.15344613     0.07400
C1862       C  0.58249899  0.48601678  0.15674638    -0.05700
H1863       H  0.03009301  0.40865376  0.11960365     0.08100
H1864       H  0.60525032  0.50848697  0.15498641     0.09300
Cu1865     Cu  0.98115448  0.43568917  0.14267961     0.44200
Cu1866     Cu  0.54426926  0.02219929  0.16419067     0.42000
Cu1867     Cu  0.96336741  0.00142946  0.12633125     0.43900
N1868       N  0.93558213  0.42521201  0.12944718    -0.34400
N1869       N  0.92832664  0.44845026  0.11959559    -0.28600
C1870       C  0.89766322  0.43426873  0.10856501    -0.04700
C1871       C  0.88435924  0.40035653  0.11489844     0.07500
C1872       C  0.90952694  0.39567445  0.12715165     0.01300
H1873       H  0.88596169  0.44788943  0.09775602     0.08900
H1874       H  0.90890600  0.37255315  0.13534085     0.08000
N1875       N  0.49785808  0.04771529  0.15983229    -0.35800
N1876       N  0.52732077  0.05531642  0.16894296    -0.28000
C1877       C  0.54396532  0.08742652  0.17726776    -0.03200
C1878       C  0.52418014  0.10083404  0.17274908     0.05400
C1879       C  0.49508817  0.07476551  0.16232319     0.03500
H1880       H  0.56911620  0.10041385  0.18311149     0.08600
H1881       H  0.47407126  0.07592508  0.15346581     0.07400
C1882       C  0.83182545  0.29073318  0.28189139     0.86800
C1883       C  0.84615230  0.27751484  0.23675653    -0.53400
C1884       C  0.87756336  0.28641242  0.23919625     0.09700
C1885       C  0.89273614  0.30947293  0.28576704     0.20700
C1886       C  0.83952437  0.28081120  0.33848697    -0.54200
C1887       C  0.87113774  0.29095907  0.34152986     0.09800
C1888       C  0.85460561  0.32817511  0.27068297    -0.53700
C1889       C  0.88639736  0.33814145  0.27362657     0.10400
H1890       H  0.83292249  0.26308639  0.20398680     0.14900
H1891       H  0.91827966  0.31683904  0.28738170     0.00700
H1892       H  0.82115742  0.26666208  0.37361210     0.15200
H1893       H  0.84673075  0.34529714  0.25940415     0.15000
N1894       N  0.93438934  0.24825861  0.05669050    -0.03200
C1895       C  0.44509986  0.22551073  0.06377724    -0.00600
C1896       C  0.44955952  0.21969549  0.00834053    -0.23500
C1897       C  0.93977698  0.23646892  0.47289036    -0.23700
C1898       C  0.92813150  0.25017783  0.00215031    -0.00700
H1899       H  0.46096307  0.20629342  0.99262890     0.13100
H1900       H  0.93839565  0.23389598  0.42812526     0.13100
C1901       C  0.68339707  0.00995611  0.29240213     0.86800
C1902       C  0.64788732  0.99769831  0.28720815    -0.53400
C1903       C  0.63851558  0.02044536  0.29505099     0.09700
C1904       C  0.66672959  0.05480898  0.30327144     0.20700
C1905       C  0.69995996  0.03926388  0.24604211    -0.54200
C1906       C  0.69180237  0.06305420  0.25150217     0.09800
C1907       C  0.68984397  0.02557860  0.34897373    -0.53700
C1908       C  0.68206038  0.04962806  0.35467244     0.10400
H1909       H  0.63187877  0.97397781  0.27425407     0.14900
H1910       H  0.65972710  0.07388096  0.30766135     0.00700
H1911       H  0.71349436  0.03883437  0.20819556     0.15200
H1912       H  0.69940604  0.01758863  0.38193062     0.15000
N1913       N  0.71349401  0.15689412  0.06456336    -0.03200
C1914       C  0.72977715  0.19044993  0.05806491    -0.00600
C1915       C  0.73058094  0.20122717  0.00313297    -0.23500
C1916       C  0.72095357  0.17360824  0.47353499    -0.23700
C1917       C  0.70379383  0.14706080  0.01276004    -0.00700
H1918       H  0.74412170  0.22640717  0.98551292     0.13100
H1919       H  0.72138713  0.17376593  0.42800715     0.13100
C1920       C  0.94971263  0.14276396  0.32341727     0.86800
C1921       C  0.96705132  0.12247571  0.31550535    -0.53400
C1922       C  0.94701771  0.08950289  0.31430490     0.09700
C1923       C  0.91123336  0.07965677  0.32139637     0.20700
C1924       C  0.92918638  0.13365621  0.27437429    -0.54200
C1925       C  0.90884088  0.10112041  0.27395241     0.09800
C1926       C  0.92610551  0.12574725  0.37789451    -0.53700
C1927       C  0.90543819  0.09258280  0.37743430     0.10400
H1928       H  0.99271213  0.13295409  0.30663675     0.14900
H1929       H  0.89181388  0.55324639  0.31756654     0.00700
H1930       H  0.93223266  0.15109056  0.24001387     0.15200
H1931       H  0.92583275  0.13923700  0.41364112     0.15000
N1932       N  0.81451933  0.52461021  0.06885261    -0.03200
C1933       C  0.79121956  0.49206465  0.07906172    -0.00600
C1934       C  0.80293680  0.47533716  0.11024299    -0.23500
C1935       C  0.83205394  0.49764931  0.12375325    -0.23700
C1936       C  0.83784805  0.52747293  0.10085645    -0.00700
H1937       H  0.79044751  0.45082785  0.13071026     0.13100
H1938       H  0.84506610  0.49341806  0.15493379     0.13100
N1939       N  0.95901301  0.41920340  0.26577329    -0.27000
N1940       N  0.93633324  0.42680126  0.27666817    -0.34800
C1941       C  0.90747109  0.39959495  0.27945905     0.01400
C1942       C  0.91180284  0.37331631  0.26860530     0.07400
C1943       C  0.94488994  0.38673966  0.25976058    -0.05700
H1944       H  0.88507345  0.39872668  0.29211962     0.08100
H1945       H  0.95765016  0.37359721  0.25179095     0.09300
Cu1946     Cu  0.94594244  0.47376697  0.28898814     0.44200
Cu1947     Cu  0.50625728  0.44835720  0.28658508     0.42000
Cu1948     Cu  0.52703553  0.03179604  0.30139452     0.43900
N1949       N  0.95889977  0.52200105  0.29801412    -0.34400
N1950       N  0.98996808  0.04362103  0.29206005    -0.28600
C1951       C  0.98996907  0.07164453  0.30197394    -0.04700
C1952       C  0.95887572  0.06615840  0.30243148     0.07500
C1953       C  0.93926702  0.53459746  0.29831041     0.01300
H1954       H  0.01103614  0.09417702  0.30933167     0.08900
H1955       H  0.91415665  0.52064838  0.29261592     0.08000
N1956       N  0.55974587  0.01496925  0.29623987    -0.35800
N1957       N  0.55158813  0.98396447  0.29117468    -0.28000
C1958       C  0.57816069  0.98132568  0.29013242    -0.03200
C1959       C  0.60445887  0.01211801  0.29402812     0.05400
C1960       C  0.59169055  0.03276919  0.29811209     0.03500
H1961       H  0.57917792  0.46101410  0.28785974     0.08600
H1962       H  0.60457111  0.05883276  0.30235257     0.07400
C1963       C  0.86350043  0.08722977  0.45432350    -0.05500
C1964       C  0.87887892  0.07222054  0.42533697     0.00500
C1965       C  0.86860758  0.03883474  0.44380781    -0.08100
C1966       C  0.83650239  0.02109403  0.98591491    -0.05500
C1967       C  0.82687139  0.54008762  0.01141774     0.00400
C1968       C  0.83801261  0.57087352  0.50527437    -0.08000
C1969       C  0.82691571  0.59116500  0.53765907     0.62400
H1970       H  0.87005339  0.11218953  0.44025062     0.13100
H1971       H  0.82730209  0.99536579  0.99870460     0.13100
C1972       C  0.88593808  0.02088409  0.42382262     0.62600
F1973       F  0.85252387  0.61599799  0.55968106    -0.22600
F1974       F  0.80293749  0.57443829  0.07499068    -0.19900
F1975       F  0.81495961  0.60504241  0.50128576    -0.19600
F1976       F  0.91844977  0.04220581  0.41239141    -0.19600
F1977       F  0.87345992  0.00517856  0.37666396    -0.20000
F1978       F  0.86883904  0.99018675  0.95548781    -0.22600
C1979       C  0.90573371  0.07475680  0.18638250    -0.05500
C1980       C  0.89220750  0.08763647  0.22445361     0.00500
C1981       C  0.86383498  0.08771182  0.21436917    -0.08100
C1982       C  0.84845347  0.07238326  0.16788205    -0.05500
C1983       C  0.86000415  0.05609610  0.13346755     0.00400
C1984       C  0.89033225  0.05956526  0.13999392    -0.08000
C1985       C  0.90670735  0.04685436  0.09981933     0.62400
H1986       H  0.92828988  0.07621425  0.19341758     0.13100
H1987       H  0.82044867  0.56299346  0.16236443     0.13100
C1988       C  0.84924718  0.10253617  0.25387444     0.62600
F1989       F  0.91148455  0.02387475  0.12910871    -0.22600
F1990       F  0.93600846  0.07278934  0.07669316    -0.19900
F1991       F  0.89547630  0.54602713  0.04138079    -0.19600
F1992       F  0.86975671  0.13584462  0.25174913    -0.19600
F1993       F  0.84433288  0.08872690  0.30882117    -0.20000
F1994       F  0.81034276  0.58318181  0.24617713    -0.22600
C1995       C  0.66281815  0.07537425  0.42432471    -0.05500
C1996       C  0.68729902  0.06912089  0.40531745     0.00500
C1997       C  0.71633145  0.08416572  0.43113234    -0.08100
C1998       C  0.71916789  0.10461740  0.47503152    -0.05500
C1999       C  0.69570724  0.11325464  0.49022775     0.00400
C2000       C  0.66693888  0.09829911  0.46365437    -0.08000
C2001       C  0.63598580  0.10190287  0.97533033     0.62400
H2002       H  0.64048284  0.06306478  0.40582485     0.13100
H2003       H  0.74147945  0.11701031  0.49364034     0.13100
C2004       C  0.74563361  0.08177835  0.40981702     0.62600
F2005       F  0.62502219  0.10179941  0.92341489    -0.22600
F2006       F  0.64360289  0.13149810  0.99582540    -0.19900
F2007       F  0.61123747  0.07679031  0.01098945    -0.19600
F2008       F  0.74947643  0.08352432  0.35149925    -0.19600
F2009       F  0.74265393  0.05261871  0.43173754    -0.20000
F2010       F  0.77339002  0.10730949  0.42574044    -0.22600
C2011       C  0.67379233  0.09179668  0.18745269    -0.05500
C2012       C  0.69967501  0.08937831  0.20493516     0.00500
C2013       C  0.73113004  0.11159607  0.17762958    -0.08100
C2014       C  0.73477643  0.13410099  0.13232002    -0.05500
C2015       C  0.70857368  0.13572484  0.11454175     0.00400
C2016       C  0.67770264  0.11500183  0.14399985    -0.08000
C2017       C  0.64800171  0.11642936  0.13257831     0.62400
H2018       H  0.64983756  0.07517907  0.20802316     0.13100
H2019       H  0.75815125  0.15041686  0.10947061     0.13100
C2020       C  0.76101734  0.11301922  0.19687943     0.62600
F2021       F  0.62655460  0.08747682  0.11239727    -0.22600
F2022       F  0.65440027  0.14249498  0.09482077    -0.19900
F2023       F  0.63370271  0.11976482  0.18239132    -0.19600
F2024       F  0.76255045  0.08544709  0.18424833    -0.19600
F2025       F  0.76082775  0.11552000  0.25441415    -0.20000
F2026       F  0.78871035  0.13995862  0.17053933    -0.22600
C2027       C  0.91571991  0.29340122  0.46995722    -0.05500
C2028       C  0.90373088  0.25985988  0.48398813     0.00500
C2029       C  0.87755315  0.23699723  0.45698226    -0.08100
C2030       C  0.86766435  0.24828651  0.41130239    -0.05500
C2031       C  0.88211438  0.28176253  0.39292721     0.00400
C2032       C  0.90499623  0.30488760  0.42537659    -0.08000
C2033       C  0.91895612  0.34148763  0.41259957     0.62400
H2034       H  0.43387906  0.30769994  0.49836816     0.13100
H2035       H  0.84883630  0.23053870  0.38885593     0.13100
C2036       C  0.86189984  0.20215380  0.96887518     0.62600
F2037       F  0.41829256  0.35115028  0.48039638    -0.22600
F2038       F  0.89488523  0.34860000  0.40434084    -0.19900
F2039       F  0.94081199  0.35226652  0.36479901    -0.19600
F2040       F  0.82969271  0.19143753  0.98296933    -0.19600
F2041       F  0.87266671  0.19271969  0.01433431    -0.20000
F2042       F  0.86527743  0.18690363  0.92250224    -0.22600
C2043       C  0.92343601  0.29917841  0.16609823    -0.05500
C2044       C  0.89482564  0.27542193  0.19825016     0.00500
C2045       C  0.88134026  0.24216441  0.18600005    -0.08100
C2046       C  0.89472109  0.23457636  0.13834405    -0.05500
C2047       C  0.92266568  0.25824399  0.10537790     0.00400
C2048       C  0.93799475  0.29109799  0.12031658    -0.08000
C2049       C  0.46531871  0.31318963  0.10051107     0.62400
H2050       H  0.93403062  0.32453159  0.17563091     0.13100
H2051       H  0.88318550  0.20971384  0.12648087     0.13100
C2052       C  0.85280036  0.21386320  0.22169445     0.62600
F2053       F  0.48822839  0.32621475  0.13767982    -0.22600
F2054       F  0.46021832  0.33774592  0.07868458    -0.19900
F2055       F  0.47731092  0.30266908  0.05666027    -0.19600
F2056       F  0.85726231  0.18701206  0.22641868    -0.19600
F2057       F  0.82543066  0.20527701  0.19585526    -0.20000
F2058       F  0.84858334  0.22143234  0.27605540    -0.22600
C2059       C  0.00330571  0.19328156  0.33420648    -0.05500
C2060       C  0.97111698  0.18047762  0.32359359     0.00500
C2061       C  0.96018688  0.20364852  0.31419762    -0.08100
C2062       C  0.98231445  0.23752911  0.31198952    -0.05500
C2063       C  0.01289248  0.24918077  0.32847013     0.00400
C2064       C  0.02405334  0.22683468  0.33730309    -0.08000
C2065       C  0.05672126  0.23681324  0.35589462     0.62400
H2066       H  0.01232057  0.17712780  0.34522538     0.13100
H2067       H  0.97413774  0.25506592  0.30587444     0.13100
C2068       C  0.92561768  0.19478377  0.30868645     0.62600
F2069       F  0.05275631  0.22276416  0.41027066    -0.22600
F2070       F  0.57618036  0.26625749  0.38878502    -0.19900
F2071       F  0.07248500  0.22563177  0.32011627    -0.19600
F2072       F  0.91898090  0.21781258  0.33089259    -0.19600
F2073       F  0.90368299  0.16501042  0.33770162    -0.20000
F2074       F  0.92107042  0.19457376  0.25206522    -0.22600
C2075       C  0.70248386  0.44093024  0.12959189    -0.05500
C2076       C  0.69085996  0.46317941  0.12405923     0.00500
C2077       C  0.71203293  0.49380557  0.09105315    -0.08100
C2078       C  0.74431989  0.50199525  0.07428199    -0.05500
C2079       C  0.75549920  0.47973784  0.08266529     0.00400
C2080       C  0.73226701  0.44717965  0.10398368    -0.08000
C2081       C  0.73549442  0.41701378  0.09568835     0.62400
H2082       H  0.68639270  0.41597546  0.14742892     0.13100
H2083       H  0.76086683  0.52564738  0.05249637     0.13100
C2084       C  0.70135148  0.51770137  0.07124519     0.62600
F2085       F  0.70826533  0.39318040  0.07539011    -0.22600
F2086       F  0.73826515  0.40435771  0.14706959    -0.19900
F2087       F  0.76116275  0.42344806  0.05691142    -0.19600
F2088       F  0.69401760  0.53088926  0.11670322    -0.19600
F2089       F  0.67504347  0.50205278  0.04176331    -0.20000
F2090       F  0.72518235  0.54372523  0.03555674    -0.22600
C2091       C  0.56891238  0.39280628  0.01641824    -0.05500
C2092       C  0.59525150  0.39090432  0.03301054     0.00500
C2093       C  0.60392820  0.37052508  0.50034563    -0.08100
C2094       C  0.58768691  0.35436707  0.45523985    -0.05500
C2095       C  0.55833476  0.35178224  0.44563929     0.00400
C2096       C  0.04847148  0.37500951  0.43943380    -0.08000
C2097       C  0.01767016  0.37482054  0.43035378     0.62400
H2098       H  0.06021940  0.40955760  0.00448901     0.13100
H2099       H  0.59510333  0.33919498  0.43286031     0.13100
C2100       C  0.63092997  0.36515186  0.51705708     0.62600
F2101       F  0.01122527  0.39263632  0.96742445    -0.22600
F2102       F  0.99195512  0.34325861  0.43908678    -0.19900
F2103       F  0.02010762  0.38732107  0.37553624    -0.19600
F2104       F  0.62904346  0.36046057  0.57519457    -0.19600
F2105       F  0.66022202  0.39174510  0.49617984    -0.20000
F2106       F  0.62933570  0.33757733  0.49552198    -0.22600
C2107       C  0.55464777  0.36345709  0.25039080    -0.05500
C2108       C  0.58623922  0.37051491  0.23288244     0.00500
C2109       C  0.59764328  0.35174424  0.26175391    -0.08100
C2110       C  0.57929214  0.33078520  0.31047935    -0.05500
C2111       C  0.54871294  0.32509629  0.32896461     0.00400
C2112       C  0.03537959  0.34255123  0.26104792    -0.08000
C2113       C  0.00196840  0.33729209  0.27631687     0.62400
H2114       H  0.54477186  0.37649415  0.22870901     0.13100
H2115       H  0.58910609  0.31884672  0.33538927     0.13100
C2116       C  0.62889998  0.35290250  0.24370936     0.62600
F2117       F  0.00340376  0.36734569  0.27670770    -0.22600
F2118       F  0.98754662  0.31985346  0.32837001    -0.19900
F2119       F  0.98276112  0.32006945  0.23601656    -0.19600
F2120       F  0.65288667  0.37723568  0.26967300    -0.19600
F2121       F  0.63635992  0.35835716  0.18571909    -0.20000
F2122       F  0.62709187  0.32336234  0.26001028    -0.22600
C2123       C  0.48637090  0.23781284  0.12872719    -0.05500
C2124       C  0.45800340  0.21441011  0.10945471     0.00500
C2125       C  0.44868760  0.18088822  0.11938989    -0.08100
C2126       C  0.46896523  0.17219147  0.14545932    -0.05500
C2127       C  0.49948195  0.19540916  0.15979978     0.00400
C2128       C  0.50790994  0.22940100  0.15189727    -0.08000
C2129       C  0.54000915  0.25751113  0.16405271     0.62400
H2130       H  0.49307989  0.26330355  0.11986930     0.13100
H2131       H  0.46187458  0.14662966  0.14852900     0.13100
C2132       C  0.91738330  0.16008248  0.10086742     0.62600
F2133       F  0.54833075  0.28923620  0.64337410    -0.22600
F2134       F  0.56495359  0.25601040  0.13437748    -0.19900
F2135       F  0.54232260  0.25624376  0.22145603    -0.19600
F2136       F  0.91144947  0.12872317  0.11417669    -0.19600
F2137       F  0.91523685  0.16284176  0.04364304    -0.20000
F2138       F  0.89371789  0.16366656  0.13054413    -0.22600
C2139       C  0.74427837  0.27671572  0.30440238    -0.05500
C2140       C  0.72596413  0.24290631  0.29881658     0.00500
C2141       C  0.74254372  0.22697747  0.27822643    -0.08100
C2142       C  0.77626135  0.24434167  0.26908270    -0.05500
C2143       C  0.79508269  0.27707790  0.28255821     0.00400
C2144       C  0.77792934  0.29234891  0.30589050    -0.08000
C2145       C  0.79263756  0.32208091  0.34010130     0.62400
H2146       H  0.73146209  0.28862551  0.32112827     0.13100
H2147       H  0.78772194  0.23039294  0.25697648     0.13100
C2148       C  0.72590438  0.19031520  0.27383333     0.62600
F2149       F  0.76974079  0.32165210  0.37968878    -0.22600
F2150       F  0.80526686  0.35066948  0.30487431    -0.19900
F2151       F  0.81609702  0.32245689  0.37024502    -0.19600
F2152       F  0.69307719  0.17665352  0.27715645    -0.19600
F2153       F  0.73313980  0.17544769  0.31720253    -0.20000
F2154       F  0.73648050  0.18394399  0.22274748    -0.22600
C2155       C  0.60766765  0.16953683  0.46093819    -0.05500
C2156       C  0.62788974  0.20212946  0.43901434     0.00500
C2157       C  0.62482765  0.22719314  0.46460054    -0.08100
C2158       C  0.60363451  0.21887550  0.51446129    -0.05500
C2159       C  0.58321214  0.18774129  0.03801610     0.00400
C2160       C  0.58452852  0.16306600  0.00783476    -0.08000
C2161       C  0.56309670  0.12685710  0.02576493     0.62400
H2162       H  0.61127206  0.15076414  0.44356687     0.13100
H2163       H  0.60230339  0.23801214  0.53619285     0.13100
C2164       C  0.64568167  0.26283611  0.44148945     0.62600
F2165       F  0.53226057  0.12007134  0.04325127    -0.22600
F2166       F  0.57534919  0.11772846  0.06893022    -0.19900
F2167       F  0.56143283  0.10817721  0.98134180    -0.19600
F2168       F  0.64279234  0.26617251  0.38459381    -0.19600
F2169       F  0.67735695  0.27326943  0.44817364    -0.20000
F2170       F  0.63687860  0.28298195  0.46904509    -0.22600
C2171       C  0.59967732  0.17088424  0.26251936    -0.05500
C2172       C  0.60024186  0.19715201  0.23133213     0.00500
C2173       C  0.62596358  0.22934462  0.23513263    -0.08100
C2174       C  0.64850705  0.23428247  0.27387559    -0.05500
C2175       C  0.64697670  0.20802625  0.30706760     0.00400
C2176       C  0.62278114  0.17553629  0.29929003    -0.08000
C2177       C  0.62029402  0.14464043  0.32710543     0.62400
H2178       H  0.58081288  0.14614615  0.25805881     0.13100
H2179       H  0.66735788  0.25881505  0.27917398     0.13100
C2180       C  0.63011260  0.25821413  0.19739009     0.62600
F2181       F  0.59096681  0.12663811  0.35973533    -0.22600
F2182       F  0.64455432  0.15091426  0.36015163    -0.19900
F2183       F  0.62187992  0.12558729  0.28594014    -0.19600
F2184       F  0.60589054  0.26478622  0.21323075    -0.19600
F2185       F  0.65914758  0.28618925  0.20114689    -0.20000
F2186       F  0.62907961  0.25105086  0.14152731    -0.22600
C2187       C  0.69589759  0.93508754  0.32391674    -0.05500
C2188       C  0.72882342  0.94955238  0.30689946     0.00500
C2189       C  0.74438632  0.98066063  0.27631577    -0.08100
C2190       C  0.72757978  0.99737404  0.26795610    -0.05500
C2191       C  0.69512294  0.98464639  0.28905652     0.00400
C2192       C  0.67887541  0.95229597  0.31851939    -0.08000
C2193       C  0.64488433  0.93600273  0.34899541     0.62400
H2194       H  0.68286054  0.41429619  0.36149799     0.13100
H2195       H  0.74183267  0.02261970  0.25046253     0.13100
C2196       C  0.78023938  0.00014699  0.26232105     0.62600
F2197       F  0.63836519  0.41528754  0.39859686    -0.22600
F2198       F  0.62275027  0.92500060  0.31041154    -0.19900
F2199       F  0.64069133  0.95724084  0.38229707    -0.19600
F2200       F  0.78727195  0.01762430  0.21034668    -0.19600
F2201       F  0.79366201  0.98026207  0.25979001    -0.20000
F2202       F  0.79348182  0.02176754  0.30279330    -0.22600
C2203       C  0.75444638  0.26238846  0.14503894    -0.05500
C2204       C  0.78775212  0.28128348  0.12651697     0.00500
C2205       C  0.80150596  0.26504443  0.09430565    -0.08100
C2206       C  0.78179156  0.23164473  0.08475230    -0.05500
C2207       C  0.74841225  0.21488624  0.09797613     0.00400
C2208       C  0.73462001  0.23046229  0.12953351    -0.08000
C2209       C  0.69854273  0.21457726  0.14250388     0.62400
H2210       H  0.74265257  0.27406775  0.16588837     0.13100
H2211       H  0.79167009  0.21937643  0.05963644     0.12700
C2212       C  0.83584207  0.28233210  0.06502229     0.62600
F2213       F  0.68475095  0.21197990  0.09288979    -0.22600
F2214       F  0.68977188  0.23240676  0.17701216    -0.19900
F2215       F  0.68648370  0.18375078  0.16989557    -0.19600
F2216       F  0.85725750  0.28951077  0.10449133    -0.19600
F2217       F  0.84257129  0.31058014  0.03273002    -0.20000
F2218       F  0.84102323  0.26288672  0.02850847    -0.22600
C2219       C  0.80835476  0.41005804  0.42449179    -0.05500
C2220       C  0.77554025  0.39858201  0.42335650     0.00500
C2221       C  0.75311125  0.37324425  0.46405800    -0.08100
C2222       C  0.76328949  0.36384606  0.01079760    -0.05500
C2223       C  0.79612965  0.37610741  0.01280144     0.00400
C2224       C  0.81812739  0.39647066  0.96596614    -0.08000
C2225       C  0.85340194  0.40717456  0.96275737     0.62400
H2226       H  0.82525574  0.42965207  0.39323274     0.13100
H2227       H  0.74662434  0.34664130  0.04532588     0.13100
C2228       C  0.71749795  0.35621479  0.45878283     0.62600
F2229       F  0.87129939  0.42617354  0.41292955    -0.22600
F2230       F  0.85733597  0.38040606  0.97458091    -0.19900
F2231       F  0.86734504  0.42969302  0.00143400    -0.19600
F2232       F  0.71199242  0.33943831  0.41112841    -0.19600
F2233       F  0.70690413  0.37854158  0.45373486    -0.20000
F2234       F  0.69961004  0.33389930  0.50503858    -0.22600
C2235       C  0.79581294  0.42071279  0.27907459    -0.05500
C2236       C  0.76301491  0.40517345  0.29764862     0.00500
C2237       C  0.74220808  0.37679708  0.27184273    -0.08100
C2238       C  0.75500617  0.36579986  0.22782327    -0.05500
C2239       C  0.78797816  0.38148557  0.20884301     0.00400
C2240       C  0.80878890  0.40919746  0.23667445    -0.08000
C2241       C  0.84471124  0.42641546  0.22454922     0.62400
H2242       H  0.81450713  0.94407692  0.30076407     0.13100
H2243       H  0.73879610  0.34421017  0.20820666     0.13100
C2244       C  0.70658411  0.35683640  0.28812752     0.62600
F2245       F  0.86331533  0.94909121  0.26623439    -0.22600
F2246       F  0.85371998  0.44669813  0.17536994    -0.19900
F2247       F  0.85471338  0.40374687  0.21990453    -0.19600
F2248       F  0.69575324  0.36954669  0.33007464    -0.19600
F2249       F  0.69839759  0.32510639  0.30669804    -0.20000
F2250       F  0.69167680  0.35583733  0.24050151    -0.22600
C2251       C  0.80250674  0.31901959  0.62472157     0.86800
C2252       C  0.83892207  0.34099202  0.62692510    -0.53400
C2253       C  0.85018444  0.37412719  0.61757599     0.09700
C2254       C  0.82328102  0.38250968  0.61101623     0.20700
C2255       C  0.78827740  0.33211267  0.67107116    -0.54200
C2256       C  0.79917540  0.36531536  0.66524034     0.09800
C2257       C  0.79580406  0.33069773  0.56926635    -0.53700
C2258       C  0.80628497  0.36328962  0.56155789     0.10400
H2259       H  0.85428252  0.33163617  0.63817903     0.14900
H2260       H  0.83136128  0.40895333  0.60379871     0.00700
H2261       H  0.77149161  0.31663612  0.70663002     0.15200
H2262       H  0.78262313  0.31397897  0.53864150     0.15000
N2263       N  0.75327779  0.41846458  0.84492208    -0.03200
C2264       C  0.74715367  0.44408091  0.84359997    -0.00600
C2265       C  0.75541249  0.95994533  0.89327058    -0.23500
C2266       C  0.76785402  0.44628000  0.92327723    -0.23700
C2267       C  0.76591406  0.42052544  0.89505159    -0.00700
H2268       H  0.75053644  0.97920927  0.90481127     0.13100
H2269       H  0.77657862  0.45322330  0.96369994     0.13100
N2270       N  0.66931520  0.22014072  0.85452863    -0.03200
C2271       C  0.70200585  0.23465304  0.85256037    -0.00600
C2272       C  0.71096280  0.23790870  0.90649037    -0.23500
C2273       C  0.68389511  0.22517606  0.94335729    -0.23700
C2274       C  0.65886186  0.21522520  0.91107231    -0.00700
H2275       H  0.73526780  0.25116431  0.91692562     0.13100
H2276       H  0.68267766  0.22571105  0.98882725     0.13100
C2277       C  0.52673925  0.18402283  0.66097585     0.86800
C2278       C  0.51282925  0.14652026  0.67609106    -0.53400
C2279       C  0.53473812  0.13605984  0.66958336     0.09700
C2280       C  0.56906856  0.16415399  0.64990710     0.20700
C2281       C  0.55350948  0.19907190  0.70061481    -0.54200
C2282       C  0.57620964  0.18945583  0.69400603     0.09800
C2283       C  0.54429344  0.19062130  0.60116500    -0.53700
C2284       C  0.56605519  0.18034815  0.59473375     0.10400
H2285       H  0.48818376  0.12937826  0.69240975     0.14900
H2286       H  0.58726735  0.15629727  0.64475042     0.00700
H2287       H  0.55293127  0.21322971  0.73474841     0.15200
H2288       H  0.53962743  0.20256820  0.56592988     0.15000
C2289       C  0.65238372  0.44528010  0.62777880     0.86800
C2290       C  0.63320690  0.46336609  0.63772795    -0.53400
C2291       C  0.60049149  0.44289277  0.64130892     0.09700
C2292       C  0.59027717  0.40642284  0.63594066     0.20700
C2293       C  0.63796440  0.41872554  0.67901704    -0.54200
C2294       C  0.60563668  0.39746975  0.68301271     0.09800
C2295       C  0.63999296  0.42757233  0.57533613    -0.53700
C2296       C  0.60818835  0.40672193  0.57952968     0.10400
H2297       H  0.64341146  0.48905425  0.64313012     0.14900
H2298       H  0.56419481  0.38953499  0.63751718     0.00700
H2299       H  0.65245260  0.41930476  0.71165805     0.15200
H2300       H  0.65544336  0.43322228  0.53606375     0.15000
N2301       N  0.03649802  0.30890072  0.85312540    -0.03200
C2302       C  0.02732873  0.27738601  0.87156686    -0.00600
C2303       C  0.02347618  0.27306976  0.92980872    -0.23500
C2304       C  0.02962799  0.30227960  0.94857695    -0.23700
C2305       C  0.03864960  0.32427614  0.90110204    -0.00700
H2306       H  0.01776785  0.25110202  0.95583384     0.13100
H2307       H  0.03186508  0.30805394  0.99213552     0.13100
N2308       N  0.55324205  0.48433613  0.65734604    -0.27000
N2309       N  0.53051753  0.45363782  0.65506769    -0.34800
C2310       C  0.54384538  0.43460301  0.65004728     0.01400
C2311       C  0.57669686  0.45405285  0.64880323     0.07400
C2312       C  0.58186584  0.48558763  0.65339677    -0.05700
H2313       H  0.02946189  0.40525938  0.62283114     0.08100
H2314       H  0.60463269  0.50779834  0.65375080     0.09300
Cu2315     Cu  0.98139041  0.43346788  0.64519855     0.44200
Cu2316     Cu  0.54603469  0.02241035  0.66426242     0.42000
Cu2317     Cu  0.96375933  0.00017939  0.63306015     0.43900
N2318       N  0.93585544  0.42355653  0.63290810    -0.34400
N2319       N  0.92905638  0.44713039  0.62308212    -0.28600
C2320       C  0.89846017  0.43336956  0.61178454    -0.04700
C2321       C  0.88468966  0.39937599  0.61780432     0.07500
C2322       C  0.90955256  0.39422324  0.63034190     0.01300
H2323       H  0.88724085  0.44736228  0.60047589     0.08900
H2324       H  0.90860791  0.37091444  0.63813401     0.08000
N2325       N  0.49883604  0.04723686  0.66331744    -0.35800
N2326       N  0.52856831  0.05507465  0.67082904    -0.28000
C2327       C  0.54530147  0.08725221  0.67863928    -0.03200
C2328       C  0.52541235  0.10061661  0.67521668     0.05400
C2329       C  0.49606372  0.07430541  0.66622655     0.03500
H2330       H  0.57061714  0.10033200  0.68319565     0.08600
H2331       H  0.47481847  0.07530559  0.65855405     0.07400
C2332       C  0.83351662  0.29662700  0.78624859     0.86800
C2333       C  0.84669221  0.28278466  0.74032326    -0.53400
C2334       C  0.87783864  0.29062949  0.74180339     0.09700
C2335       C  0.89411711  0.31373651  0.78780365     0.20700
C2336       C  0.84140297  0.28626406  0.84228180    -0.54200
C2337       C  0.87290632  0.29543511  0.84393855     0.09800
C2338       C  0.85687642  0.33385371  0.77478406    -0.53700
C2339       C  0.88853570  0.34310760  0.77675212     0.10400
H2340       H  0.83291628  0.26898069  0.70751622     0.14900
H2341       H  0.91954882  0.32040584  0.78827629     0.00700
H2342       H  0.82324571  0.27234667  0.87779241     0.15200
H2343       H  0.84937730  0.35139079  0.76449229     0.15000
N2344       N  0.93177152  0.24791633  0.56186826    -0.03200
C2345       C  0.44732701  0.22719688  0.56559938    -0.00600
C2346       C  0.45120936  0.22031489  0.51070643    -0.23500
C2347       C  0.94196093  0.23664583  0.96769408    -0.23700
C2348       C  0.92562525  0.24978859  0.50710175    -0.00700
H2349       H  0.46219071  0.20632291  0.49603402     0.13100
H2350       H  0.94058356  0.23430504  0.92294640     0.13100
C2351       C  0.68442775  0.01137309  0.79556652     0.86800
C2352       C  0.64890375  0.99921351  0.79047430    -0.53400
C2353       C  0.63950644  0.02183939  0.79981733     0.09700
C2354       C  0.66753390  0.05583918  0.80978520     0.20700
C2355       C  0.70094920  0.04137594  0.75057932    -0.54200
C2356       C  0.69272436  0.06495640  0.75791597     0.09800
C2357       C  0.69069163  0.02594861  0.85316324    -0.53700
C2358       C  0.68253827  0.04960479  0.86067069     0.10400
H2359       H  0.63294417  0.97572139  0.77662815     0.14900
H2360       H  0.66047818  0.07476372  0.81585492     0.00700
H2361       H  0.71569492  0.04272783  0.71279729     0.15200
H2362       H  0.69992216  0.01720947  0.88562223     0.15000
N2363       N  0.71462968  0.15563361  0.56545374    -0.03200
C2364       C  0.73196075  0.18929019  0.55905279    -0.00600
C2365       C  0.73609610  0.20041471  0.50303696    -0.23500
C2366       C  0.71394390  0.17416930  0.97470931    -0.23700
C2367       C  0.70772712  0.14626800  0.51204261    -0.00700
H2368       H  0.75077718  0.22566459  0.48565386     0.13100
H2369       H  0.71174814  0.17415187  0.92987315     0.13100
C2370       C  0.94909302  0.14302728  0.83018309     0.86800
C2371       C  0.96595078  0.12228003  0.82431497    -0.53400
C2372       C  0.94579250  0.08961829  0.82125573     0.09700
C2373       C  0.91025344  0.08038604  0.82445523     0.20700
C2374       C  0.93046139  0.13506432  0.77857771    -0.54200
C2375       C  0.90987921  0.10274672  0.77633374     0.09800
C2376       C  0.92363928  0.12553652  0.88244329    -0.53700
C2377       C  0.90269690  0.09245615  0.88013027     0.10400
H2378       H  0.99160670  0.13237218  0.81729605     0.14900
H2379       H  0.89719558  0.55896173  0.81600148     0.00700
H2380       H  0.93511446  0.15292092  0.74392431     0.15200
H2381       H  0.92266500  0.13868945  0.91823812     0.15000
N2382       N  0.81384313  0.52197171  0.57833751    -0.03200
C2383       C  0.78901184  0.49025146  0.58988984    -0.00600
C2384       C  0.79660624  0.47342753  0.62976010    -0.23500
C2385       C  0.82596206  0.49451757  0.64380680    -0.23700
C2386       C  0.83538542  0.52394266  0.61392094    -0.00700
H2387       H  0.78096127  0.45006059  0.65359670     0.13100
H2388       H  0.83706512  0.49040603  0.67864906     0.13100
N2389       N  0.96161779  0.42374740  0.77055039    -0.27000
N2390       N  0.93926817  0.43189536  0.78042971    -0.34800
C2391       C  0.91024493  0.40489376  0.78251219     0.01400
C2392       C  0.91425683  0.37822663  0.77255240     0.07400
C2393       C  0.94728804  0.39126637  0.76471629    -0.05700
H2394       H  0.88789882  0.40449676  0.79338122     0.08100
H2395       H  0.95993507  0.37793407  0.75726691     0.09300
Cu2396     Cu  0.95014902  0.47970378  0.79141640     0.44200
Cu2397     Cu  0.50397041  0.44834933  0.77899920     0.42000
Cu2398     Cu  0.52891050  0.03462452  0.80690123     0.43900
N2399       N  0.96412321  0.52869924  0.79832399    -0.34400
N2400       N  0.98895188  0.04429643  0.79781098    -0.28600
C2401       C  0.98888922  0.07219122  0.80813223    -0.04700
C2402       C  0.95766648  0.06640271  0.80955714     0.07500
C2403       C  0.94465775  0.54147587  0.79850019     0.01300
H2404       H  0.01003904  0.09484307  0.81468796     0.08900
H2405       H  0.91953021  0.52745258  0.79316773     0.08000
N2406       N  0.56134903  0.01748415  0.80032151    -0.35800
N2407       N  0.55323538  0.98684727  0.79179321    -0.28000
C2408       C  0.57957959  0.98383451  0.79059035    -0.03200
C2409       C  0.60570448  0.01401381  0.79805366     0.05400
C2410       C  0.59309795  0.03471004  0.80433517     0.03500
H2411       H  0.57709864  0.46077204  0.78307711     0.08600
H2412       H  0.60592950  0.06039805  0.81147307     0.07400
C2413       C  0.86074919  0.08736805  0.95687166    -0.05500
C2414       C  0.87471941  0.07158157  0.92606685     0.00500
C2415       C  0.86188400  0.03718942  0.94168656    -0.08100
C2416       C  0.84326738  0.02221930  0.48787075    -0.05500
C2417       C  0.82703142  0.53727974  0.52101919     0.00400
C2418       C  0.83793982  0.57379952  0.99741057    -0.08000
C2419       C  0.82614296  0.59314359  0.03083240     0.62400
H2420       H  0.86866733  0.11290919  0.94475225     0.13100
H2421       H  0.83561557  0.99697777  0.50208813     0.13100
C2422       C  0.87616422  0.01706045  0.91828595     0.62600
F2423       F  0.85151183  0.61807871  0.05289432    -0.22600
F2424       F  0.80330250  0.57309467  0.58149707    -0.19900
F2425       F  0.81353692  0.60668328  0.99529048    -0.19600
F2426       F  0.90912507  0.03560188  0.91013938    -0.19600
F2427       F  0.86380917  0.00515332  0.86853895    -0.20000
F2428       F  0.88220798  0.99723670  0.46512938    -0.22600
C2429       C  0.90808814  0.07619828  0.68938917    -0.05500
C2430       C  0.89444751  0.08981192  0.72549159     0.00500
C2431       C  0.86590134  0.08912917  0.71439794    -0.08100
C2432       C  0.85057039  0.07255047  0.66871514    -0.05500
C2433       C  0.86237480  0.05578577  0.63604195     0.00400
C2434       C  0.89264867  0.05942027  0.64415026    -0.08000
C2435       C  0.90884554  0.04492696  0.60771776     0.62400
H2436       H  0.93040674  0.07766346  0.69802215     0.13100
H2437       H  0.82438115  0.56706699  0.66351267     0.13100
C2438       C  0.85104051  0.10435061  0.75235721     0.62600
F2439       F  0.91341976  0.02310972  0.64112767    -0.22600
F2440       F  0.93822643  0.06994805  0.58279580    -0.19900
F2441       F  0.88816374  0.52692486  0.56313691    -0.19600
F2442       F  0.87149840  0.13776324  0.74959468    -0.19600
F2443       F  0.84576208  0.09105453  0.80777562    -0.20000
F2444       F  0.81869339  0.59573015  0.73791433    -0.22600
C2445       C  0.66054064  0.07119579  0.93344175    -0.05500
C2446       C  0.68649361  0.06759948  0.91286030     0.00500
C2447       C  0.71601215  0.08547208  0.93627612    -0.08100
C2448       C  0.71832330  0.10722145  0.97744384    -0.05500
C2449       C  0.69368231  0.11434064  0.99136201     0.00400
C2450       C  0.66409198  0.09581628  0.96849586    -0.08000
C2451       C  0.64034328  0.10646519  0.47472713     0.62400
H2452       H  0.63783547  0.05691754  0.91668255     0.13100
H2453       H  0.74087684  0.12177739  0.99433429     0.13100
C2454       C  0.74596477  0.08443819  0.91473111     0.62600
F2455       F  0.61967719  0.09627490  0.43338046    -0.22600
F2456       F  0.65255275  0.13978323  0.47603897    -0.19900
F2457       F  0.62247345  0.09034700  0.52538065    -0.19600
F2458       F  0.75106704  0.08956640  0.85646879    -0.19600
F2459       F  0.74294838  0.05450056  0.93162858    -0.20000
F2460       F  0.77295453  0.10861715  0.93508648    -0.22600
C2461       C  0.67553008  0.09544585  0.69612874    -0.05500
C2462       C  0.70105320  0.09192902  0.71244542     0.00500
C2463       C  0.73191220  0.11143899  0.68093794    -0.08100
C2464       C  0.73515713  0.13197145  0.63289071    -0.05500
C2465       C  0.70927999  0.13453765  0.61591865     0.00400
C2466       C  0.67893871  0.11626513  0.64879488    -0.08000
C2467       C  0.64896601  0.11684697  0.63630982     0.62400
H2468       H  0.65191390  0.08059997  0.71928575     0.13100
H2469       H  0.75833501  0.14635414  0.60798392     0.13100
C2470       C  0.76247691  0.11258355  0.69554876     0.62600
F2471       F  0.62568020  0.08543193  0.62805224    -0.22600
F2472       F  0.65402980  0.13801927  0.58978625    -0.19900
F2473       F  0.63743695  0.12646272  0.68216987    -0.19600
F2474       F  0.77301778  0.09944434  0.65373940    -0.19600
F2475       F  0.75893881  0.09594753  0.74700072    -0.20000
F2476       F  0.78584088  0.14487574  0.69795819    -0.22600
C2477       C  0.91940040  0.29484605  0.96720603    -0.05500
C2478       C  0.90678125  0.26113474  0.97983189     0.00500
C2479       C  0.87970904  0.23902970  0.95396599    -0.08100
C2480       C  0.86896262  0.25139180  0.91116495    -0.05500
C2481       C  0.88407840  0.28506900  0.89369621     0.00400
C2482       C  0.90838763  0.30737273  0.92482704    -0.08000
C2483       C  0.92371050  0.34417414  0.91269475     0.62400
H2484       H  0.43602974  0.30811959  0.99277001     0.13100
H2485       H  0.84899528  0.23430862  0.89008101     0.13100
C2486       C  0.86006320  0.20030519  0.47351179     0.62600
F2487       F  0.43001283  0.35555106  0.96612853    -0.22600
F2488       F  0.90055129  0.35284666  0.90601568    -0.19900
F2489       F  0.94503794  0.35432215  0.86427612    -0.19600
F2490       F  0.82750487  0.18898465  0.48354217    -0.19600
F2491       F  0.86956786  0.19211561  0.52204359    -0.20000
F2492       F  0.86545971  0.18463569  0.42963704    -0.22600
C2493       C  0.92233817  0.30138794  0.66755258    -0.05500
C2494       C  0.89391304  0.27845198  0.70081039     0.00500
C2495       C  0.88030720  0.24469590  0.69161262    -0.08100
C2496       C  0.89342589  0.23574702  0.64529814    -0.05500
C2497       C  0.92076398  0.25884441  0.61016858     0.00400
C2498       C  0.93637138  0.29213853  0.62285643    -0.08000
C2499       C  0.46702569  0.31299019  0.60611937     0.62400
H2500       H  0.93332295  0.32700743  0.67560015     0.13100
H2501       H  0.88205647  0.21044875  0.63569177     0.13100
C2502       C  0.85238236  0.21767494  0.73049535     0.62600
F2503       F  0.46285556  0.33823687  0.58460131    -0.22600
F2504       F  0.47954838  0.30291048  0.56238906    -0.19900
F2505       F  0.48906345  0.32487578  0.64499755    -0.19600
F2506       F  0.85257997  0.18837596  0.72904157    -0.19600
F2507       F  0.82380554  0.21298525  0.71362593    -0.20000
F2508       F  0.85420934  0.22545255  0.78591919    -0.22600
C2509       C  0.00280144  0.19183551  0.84641290    -0.05500
C2510       C  0.97133271  0.18049682  0.83237696     0.00500
C2511       C  0.96215523  0.20486334  0.82063907    -0.08100
C2512       C  0.98501424  0.23833937  0.82126068    -0.05500
C2513       C  0.01511308  0.24852055  0.83892027     0.00400
C2514       C  0.02485453  0.22512348  0.84837455    -0.08000
C2515       C  0.05785939  0.23397571  0.86396165     0.62400
H2516       H  0.01048253  0.17486523  0.85953559     0.13100
H2517       H  0.97808401  0.25678646  0.81431268     0.13100
C2518       C  0.92873547  0.19755898  0.80899584     0.62600
F2519       F  0.05501737  0.22067957  0.91846431    -0.22600
F2520       F  0.57589944  0.26863041  0.89006963    -0.19900
F2521       F  0.07148782  0.22106067  0.82721725    -0.19600
F2522       F  0.92234602  0.22153579  0.82721048    -0.19600
F2523       F  0.90503905  0.16822328  0.83695001    -0.20000
F2524       F  0.92681999  0.19735382  0.75135722    -0.22600
C2525       C  0.70000212  0.43825215  0.61891267    -0.05500
C2526       C  0.68935574  0.46143808  0.61732692     0.00500
C2527       C  0.71152993  0.49324958  0.58927282    -0.08100
C2528       C  0.74398324  0.50149851  0.57527689    -0.05500
C2529       C  0.75447626  0.47870215  0.58323609     0.00400
C2530       C  0.73078077  0.44553669  0.59798691    -0.08000
C2531       C  0.73571800  0.41639418  0.58965191     0.62400
H2532       H  0.68298290  0.41264478  0.63173529     0.13100
H2533       H  0.76138776  0.52590221  0.55757774     0.13100
C2534       C  0.70194895  0.51841322  0.57220931     0.62600
F2535       F  0.71235254  0.39482501  0.55884365    -0.22600
F2536       F  0.73256508  0.40012329  0.64160408    -0.19900
F2537       F  0.76512430  0.42520391  0.56044250    -0.19600
F2538       F  0.69430819  0.53011157  0.61950915    -0.19600
F2539       F  0.67622741  0.50465054  0.54087477    -0.20000
F2540       F  0.72665727  0.54524521  0.53934014    -0.22600
C2541       C  0.56570011  0.38995312  0.51606167    -0.05500
C2542       C  0.59256804  0.38865855  0.53135097     0.00500
C2543       C  0.60612789  0.37199772  0.00331724    -0.08100
C2544       C  0.58963464  0.35519060  0.95887998    -0.05500
C2545       C  0.56096962  0.35368713  0.94749202     0.00400
C2546       C  0.05028434  0.37696791  0.93849817    -0.08000
C2547       C  0.01884681  0.37531059  0.92954722     0.62400
H2548       H  0.05923246  0.40668778  0.50693524     0.13100
H2549       H  0.59646892  0.33920383  0.93783615     0.13100
C2550       C  0.63298965  0.36674046  0.02083185     0.62600
F2551       F  0.01169373  0.39391311  0.46662815    -0.22600
F2552       F  0.99422044  0.34319013  0.93620248    -0.19900
F2553       F  0.02122549  0.38876223  0.87553350    -0.19600
F2554       F  0.63042828  0.36160788  0.07897185    -0.19600
F2555       F  0.66219583  0.39369337  0.00109630    -0.20000
F2556       F  0.63209347  0.33958117  0.99892784    -0.22600
C2557       C  0.55534418  0.36494819  0.75083369    -0.05500
C2558       C  0.58653683  0.37132362  0.73193247     0.00500
C2559       C  0.59822759  0.35286665  0.76097430    -0.08100
C2560       C  0.58037771  0.33256856  0.81066510    -0.05500
C2561       C  0.55001721  0.32724480  0.82999615     0.00400
C2562       C  0.03606501  0.34027584  0.76531442    -0.08000
C2563       C  0.00253203  0.33454316  0.78123078     0.62400
H2564       H  0.54539115  0.37798527  0.72933709     0.13100
H2565       H  0.59038369  0.32084303  0.83556644     0.13100
C2566       C  0.62918087  0.35358852  0.74183564     0.62600
F2567       F  0.00338789  0.36432157  0.78145323    -0.22600
F2568       F  0.98866690  0.31721059  0.83354904    -0.19900
F2569       F  0.98317222  0.31691325  0.74133380    -0.19600
F2570       F  0.65395282  0.37870732  0.76506793    -0.19600
F2571       F  0.63531703  0.35743573  0.68358960    -0.20000
F2572       F  0.62765778  0.32446006  0.76007264    -0.22600
C2573       C  0.49000312  0.23980954  0.62750205    -0.05500
C2574       C  0.46044879  0.21662494  0.61174632     0.00500
C2575       C  0.45012133  0.18302866  0.62418384    -0.08100
C2576       C  0.47079050  0.17382895  0.64768526    -0.05500
C2577       C  0.50220106  0.19669089  0.65872132     0.00400
C2578       C  0.51141919  0.23088366  0.64968091    -0.08000
C2579       C  0.54389615  0.25865744  0.66089098     0.62400
H2580       H  0.49740338  0.26535915  0.61729163     0.13100
H2581       H  0.46285824  0.14810435  0.65219098     0.13100
C2582       C  0.91542380  0.15947322  0.60272430     0.62600
F2583       F  0.54359276  0.28792061  0.14807269    -0.22600
F2584       F  0.56837541  0.25603240  0.63202907    -0.19900
F2585       F  0.54607853  0.25801903  0.71837968    -0.19600
F2586       F  0.91001760  0.12811386  0.61346283    -0.19600
F2587       F  0.91337675  0.16337585  0.54577209    -0.20000
F2588       F  0.89140538  0.16209731  0.63338261    -0.22600
C2589       C  0.74701467  0.28506005  0.80900526    -0.05500
C2590       C  0.72804760  0.25114789  0.80475238     0.00500
C2591       C  0.74395281  0.23439805  0.78499375    -0.08100
C2592       C  0.77758045  0.25099028  0.77598194    -0.05500
C2593       C  0.79698322  0.28383879  0.78794229     0.00400
C2594       C  0.78063115  0.30013237  0.81008565    -0.08000
C2595       C  0.79595854  0.33012942  0.84346708     0.62400
H2596       H  0.73477208  0.29765731  0.82507020     0.13100
H2597       H  0.78857865  0.23647547  0.76489559     0.13100
C2598       C  0.72681497  0.19775590  0.78130691     0.62600
F2599       F  0.77354659  0.33008504  0.88368228    -0.22600
F2600       F  0.80829251  0.35842860  0.80766868    -0.19900
F2601       F  0.81979333  0.33067744  0.87269810    -0.19600
F2602       F  0.69436098  0.18515109  0.78161729    -0.19600
F2603       F  0.73243715  0.18267006  0.82661653    -0.20000
F2604       F  0.73812498  0.19061088  0.73177340    -0.22600
C2605       C  0.60741525  0.17262520  0.96039100    -0.05500
C2606       C  0.62667850  0.20551135  0.93901781     0.00500
C2607       C  0.62139221  0.22953182  0.96363055    -0.08100
C2608       C  0.60014320  0.22035299  0.01355364    -0.05500
C2609       C  0.58552310  0.18634453  0.53919036     0.00400
C2610       C  0.58579218  0.16097035  0.50955693    -0.08000
C2611       C  0.56491471  0.12497937  0.52976337     0.62400
H2612       H  0.61244326  0.15454119  0.94380306     0.13100
H2613       H  0.59773556  0.23891919  0.03531861     0.13100
C2614       C  0.64007232  0.26516606  0.93956737     0.62600
F2615       F  0.53448053  0.11820039  0.55018810    -0.22600
F2616       F  0.57885710  0.11690428  0.57133729    -0.19900
F2617       F  0.56179153  0.10540055  0.48611251    -0.19600
F2618       F  0.63710726  0.26739264  0.88248583    -0.19600
F2619       F  0.67204830  0.27823708  0.94669237    -0.20000
F2620       F  0.62895111  0.28382437  0.96598076    -0.22600
C2621       C  0.60396633  0.17314053  0.76172922    -0.05500
C2622       C  0.60268091  0.19861261  0.73136523     0.00500
C2623       C  0.62697387  0.23146053  0.73614648    -0.08100
C2624       C  0.64956758  0.23761884  0.77524176    -0.05500
C2625       C  0.64922458  0.21215692  0.80869995     0.00400
C2626       C  0.62680177  0.17919404  0.79986905    -0.08000
C2627       C  0.62596739  0.14935602  0.82854770     0.62400
H2628       H  0.58642321  0.14797556  0.75644367     0.13100
H2629       H  0.66713776  0.26254997  0.78143702     0.13100
C2630       C  0.62945803  0.26000446  0.69988024     0.62600
F2631       F  0.59600975  0.12925219  0.85800882    -0.22600
F2632       F  0.64906340  0.15737680  0.86500454    -0.19900
F2633       F  0.63117899  0.13180083  0.78818926    -0.19600
F2634       F  0.60491587  0.26549325  0.71859333    -0.19600
F2635       F  0.65818901  0.28852518  0.70263193    -0.20000
F2636       F  0.62756258  0.25322799  0.64386180    -0.22600
C2637       C  0.69764196  0.93679613  0.82309737    -0.05500
C2638       C  0.73051278  0.95154002  0.80523327     0.00500
C2639       C  0.74570321  0.98278288  0.77531890    -0.08100
C2640       C  0.72865459  0.99929396  0.76819846    -0.05500
C2641       C  0.69628070  0.98627371  0.79016851     0.00400
C2642       C  0.68028632  0.95367288  0.81858973    -0.08000
C2643       C  0.64607767  0.93656465  0.84825249     0.62400
H2644       H  0.68471547  0.41389451  0.85065259     0.13100
H2645       H  0.74282626  0.02457992  0.75100076     0.13100
C2646       C  0.78136019  0.00240434  0.75891488     0.62600
F2647       F  0.63776488  0.40972979  0.88677179    -0.22600
F2648       F  0.62445409  0.92607452  0.80872668    -0.19900
F2649       F  0.64117467  0.95698665  0.88262323    -0.19600
F2650       F  0.78681157  0.01692728  0.70470435    -0.19600
F2651       F  0.79566698  0.98329297  0.76028952    -0.20000
F2652       F  0.79500346  0.02656176  0.79527713    -0.22600
C2653       C  0.75417751  0.26179026  0.64397859    -0.05500
C2654       C  0.78759723  0.28084339  0.62659315     0.00500
C2655       C  0.80185261  0.26453780  0.59596495    -0.08100
C2656       C  0.78280724  0.23066299  0.58887018    -0.05500
C2657       C  0.74930992  0.21365741  0.60019833     0.00400
C2658       C  0.73486208  0.22955063  0.62903432    -0.08000
C2659       C  0.69873130  0.21320068  0.64087504     0.62400
H2660       H  0.74203634  0.27349254  0.66356843     0.13100
H2661       H  0.79332781  0.21821133  0.56599876     0.12700
C2662       C  0.83581314  0.28207902  0.56501654     0.62600
F2663       F  0.68506353  0.20759125  0.59072822    -0.22600
F2664       F  0.68904315  0.23201990  0.67067790    -0.19900
F2665       F  0.68746092  0.18378087  0.67271568    -0.19600
F2666       F  0.85796761  0.28943617  0.60313718    -0.19600
F2667       F  0.84191760  0.31022270  0.53314815    -0.20000
F2668       F  0.84043365  0.26270909  0.52754335    -0.22600
C2669       C  0.80675350  0.40753612  0.92210282    -0.05500
C2670       C  0.77409998  0.39740866  0.92269479     0.00500
C2671       C  0.75184033  0.37370894  0.96590611    -0.08100
C2672       C  0.76434670  0.36332429  0.50923996    -0.05500
C2673       C  0.79721980  0.37648342  0.51286822     0.00400
C2674       C  0.81955653  0.39825522  0.46756275    -0.08000
C2675       C  0.85479055  0.40878667  0.46435362     0.62400
H2676       H  0.82359135  0.42611475  0.88935081     0.13100
H2677       H  0.74745510  0.34494284  0.54221421     0.13100
C2678       C  0.71609271  0.35915866  0.96462405     0.62600
F2679       F  0.86916876  0.42165001  0.90937313    -0.22600
F2680       F  0.85844667  0.38147146  0.47048911    -0.19900
F2681       F  0.86821351  0.42860775  0.50675861    -0.19600
F2682       F  0.70754521  0.34238037  0.91721509    -0.19600
F2683       F  0.70808396  0.38352880  0.96229919    -0.20000
F2684       F  0.69852631  0.33743861  0.01175532    -0.22600
C2685       C  0.79553225  0.42211997  0.77647598    -0.05500
C2686       C  0.76288254  0.40623544  0.79613120     0.00500
C2687       C  0.74222769  0.37715944  0.77178284    -0.08100
C2688       C  0.75498930  0.36580905  0.72819806    -0.05500
C2689       C  0.78789109  0.38170314  0.70836209     0.00400
C2690       C  0.80857615  0.41027520  0.73468212    -0.08000
C2691       C  0.84453073  0.42784043  0.72250559     0.62400
H2692       H  0.81555362  0.94478367  0.79952907     0.13100
H2693       H  0.73879202  0.34372688  0.70974090     0.13100
C2694       C  0.70673141  0.35689165  0.78910613     0.62600
F2695       F  0.85988126  0.93433539  0.78697038    -0.22600
F2696       F  0.85332335  0.44760083  0.67270395    -0.19900
F2697       F  0.85494578  0.40544533  0.71927108    -0.19600
F2698       F  0.69591255  0.37016124  0.82992437    -0.19600
F2699       F  0.69913396  0.32566015  0.80970104    -0.20000
F2700       F  0.69130895  0.35459164  0.74168212    -0.22600
C2701       C  0.80634255  0.82188609  0.12612693     0.86800
C2702       C  0.84300696  0.84477595  0.12461514    -0.53400
C2703       C  0.85336156  0.87770219  0.11434909     0.09700
C2704       C  0.82566311  0.88505458  0.11004657     0.20700
C2705       C  0.79310170  0.83535068  0.17325724    -0.54200
C2706       C  0.80299317  0.86821981  0.16577619     0.09800
C2707       C  0.79785382  0.83231499  0.07134130    -0.53700
C2708       C  0.80760455  0.86468977  0.06250429     0.10400
H2709       H  0.85942112  0.83658904  0.13437470     0.14900
H2710       H  0.83310362  0.91136239  0.10230755     0.00700
H2711       H  0.77751110  0.82026692  0.21044627     0.15200
H2712       H  0.78434644  0.81497971  0.04174863     0.15000
N2713       N  0.75608910  0.91885151  0.34683538    -0.03200
C2714       C  0.74678583  0.94208326  0.34694008    -0.00600
C2715       C  0.75306555  0.45903017  0.39136162    -0.23500
C2716       C  0.76786324  0.94560401  0.42654358    -0.23700
C2717       C  0.76894787  0.92164289  0.39674862    -0.00700
H2718       H  0.74818394  0.47840845  0.40205963     0.13100
H2719       H  0.77633032  0.95291192  0.46695662     0.13100
N2720       N  0.66694043  0.71463957  0.35495993    -0.03200
C2721       C  0.69963783  0.72804958  0.35289938    -0.00600
C2722       C  0.70842262  0.73063652  0.40695308    -0.23500
C2723       C  0.68145402  0.71875794  0.44386262    -0.23700
C2724       C  0.65652039  0.70984735  0.41162694    -0.00700
H2725       H  0.73268146  0.74302975  0.41753490     0.13100
H2726       H  0.68033393  0.71912947  0.48936648     0.13100
C2727       C  0.52373578  0.68329039  0.16454592     0.86800
C2728       C  0.50981422  0.64574060  0.17876906    -0.53400
C2729       C  0.53165903  0.63530814  0.17105292     0.09700
C2730       C  0.56591564  0.66333886  0.15117956     0.20700
C2731       C  0.55074497  0.69793003  0.20394254    -0.54200
C2732       C  0.57329998  0.68810246  0.19628840     0.09800
C2733       C  0.54103461  0.69031503  0.10441215    -0.53700
C2734       C  0.56267038  0.67997209  0.09673426     0.10400
H2735       H  0.48528607  0.62858878  0.19584362     0.14900
H2736       H  0.58400285  0.65537182  0.14501956     0.00700
H2737       H  0.55030808  0.71172786  0.23879783     0.15200
H2738       H  0.53619591  0.70250281  0.06978748     0.15000
C2739       C  0.65100608  0.94296226  0.13277242     0.86800
C2740       C  0.63154597  0.96062505  0.14288343    -0.53400
C2741       C  0.59903044  0.94033639  0.14396451     0.09700
C2742       C  0.58905943  0.90408535  0.13681164     0.20700
C2743       C  0.63584888  0.91540463  0.18246037    -0.54200
C2744       C  0.60354346  0.89420456  0.18445564     0.09800
C2745       C  0.63989046  0.92620040  0.07899953    -0.53700
C2746       C  0.60815264  0.90545440  0.08094474     0.10400
H2747       H  0.64143254  0.98589862  0.15097713     0.14900
H2748       H  0.56303205  0.88737646  0.13665148     0.00700
H2749       H  0.64975820  0.91507648  0.21553271     0.15200
H2750       H  0.65619719  0.93205408  0.04078614     0.15000
N2751       N  0.03638979  0.81143612  0.33109242    -0.03200
C2752       C  0.02246925  0.77900572  0.35000147    -0.00600
C2753       C  0.01529687  0.77454002  0.40780553    -0.23500
C2754       C  0.02388837  0.80431312  0.42624570    -0.23700
C2755       C  0.03755422  0.82680889  0.37914058    -0.00700
H2756       H  0.00620541  0.75180519  0.43369568     0.13100
H2757       H  0.02410482  0.80954965  0.47014080     0.13100
N2758       N  0.55292311  0.98304738  0.15771329    -0.27000
N2759       N  0.52983492  0.95238425  0.15660285    -0.34800
C2760       C  0.54263545  0.93281522  0.15238235     0.01400
C2761       C  0.57551546  0.95187372  0.15069093     0.07400
C2762       C  0.58125489  0.98371436  0.15393134    -0.05700
H2763       H  0.03347894  0.91312838  0.10320440     0.08100
H2764       H  0.60424125  0.00577363  0.15345587     0.09300
Cu2765     Cu  0.98621610  0.94105659  0.12836526     0.44200
Cu2766     Cu  0.54379878  0.52253474  0.16908364     0.42000
Cu2767     Cu  0.95934474  0.49772538  0.13154745     0.43900
N2768       N  0.93975970  0.92935381  0.12080698    -0.34400
N2769       N  0.93171033  0.95223241  0.11472988    -0.28600
C2770       C  0.90051007  0.93765385  0.10704094    -0.04700
C2771       C  0.88779301  0.90377062  0.11162050     0.07500
C2772       C  0.91380137  0.89961551  0.11940702     0.01300
H2773       H  0.88814597  0.95095251  0.09905678     0.08900
H2774       H  0.91388476  0.87670747  0.12491631     0.08000
N2775       N  0.49631121  0.54665464  0.16547513    -0.35800
N2776       N  0.52597342  0.55473452  0.17396150    -0.28000
C2777       C  0.54249984  0.58693427  0.18138205    -0.03200
C2778       C  0.52249117  0.60002547  0.17689542     0.05400
C2779       C  0.49332671  0.57362351  0.16757251     0.03500
H2780       H  0.56777243  0.60018352  0.18635110     0.08600
H2781       H  0.47215785  0.57453020  0.15917389     0.07400
C2782       C  0.83203336  0.78790183  0.28879010     0.86800
C2783       C  0.84511545  0.77250384  0.24587798    -0.53400
C2784       C  0.87651041  0.78099497  0.24738121     0.09700
C2785       C  0.89283248  0.80560833  0.29154476     0.20700
C2786       C  0.84010631  0.77949989  0.34621401    -0.54200
C2787       C  0.87163079  0.78893731  0.34852582     0.09800
C2788       C  0.85553552  0.82498257  0.27362977    -0.53700
C2789       C  0.88726762  0.83459503  0.27641406     0.10400
H2790       H  0.83128374  0.75758736  0.21414701     0.14900
H2791       H  0.91831505  0.81259851  0.29289783     0.00700
H2792       H  0.82199376  0.76645232  0.38217275     0.15200
H2793       H  0.84792032  0.84213455  0.26069160     0.15000
N2794       N  0.92929237  0.74312403  0.05824304    -0.03200
C2795       C  0.44496130  0.72621177  0.06716614    -0.00600
C2796       C  0.44863917  0.71912142  0.01231531    -0.23500
C2797       C  0.94187002  0.73612364  0.47777112    -0.23700
C2798       C  0.91966671  0.74167479  0.00551672    -0.00700
H2799       H  0.46008143  0.70560479  0.99737767     0.13100
H2800       H  0.94153491  0.73497105  0.43247450     0.13100
C2801       C  0.68375929  0.51146819  0.29220473     0.86800
C2802       C  0.64839231  0.49974939  0.28771052    -0.53400
C2803       C  0.63938826  0.52264185  0.29669088     0.09700
C2804       C  0.66784065  0.55678205  0.30518091     0.20700
C2805       C  0.70046328  0.54105992  0.24625474    -0.54200
C2806       C  0.69260829  0.56510727  0.25276224     0.09800
C2807       C  0.69083375  0.52694804  0.34892310    -0.53700
C2808       C  0.68325976  0.55107371  0.35585629     0.10400
H2809       H  0.63215857  0.47587136  0.27526086     0.14900
H2810       H  0.66100845  0.57590240  0.31085192     0.00700
H2811       H  0.71284589  0.54046125  0.20721288     0.15200
H2812       H  0.69995948  0.51820722  0.38150453     0.15000
N2813       N  0.71389409  0.65970609  0.06675009    -0.03200
C2814       C  0.73229936  0.69328698  0.06013351    -0.00600
C2815       C  0.73610329  0.70445141  0.00419344    -0.23500
C2816       C  0.72134418  0.67467280  0.47140794    -0.23700
C2817       C  0.70583659  0.65037027  0.01385102    -0.00700
H2818       H  0.75140357  0.72954818  0.98636357     0.13100
H2819       H  0.72210822  0.67413249  0.42596369     0.13100
C2820       C  0.94538634  0.64269196  0.32323410     0.86800
C2821       C  0.96322961  0.62299319  0.31648973    -0.53400
C2822       C  0.94376154  0.59002829  0.31598188     0.09700
C2823       C  0.90782126  0.57938640  0.32143041     0.20700
C2824       C  0.92498745  0.63292904  0.27386108    -0.54200
C2825       C  0.90524187  0.60018993  0.27319386     0.09800
C2826       C  0.92144431  0.62553599  0.37735003    -0.53700
C2827       C  0.90114765  0.59212595  0.37706971     0.10400
H2828       H  0.98897720  0.63384125  0.30845856     0.14900
H2829       H  0.89453487  0.05347870  0.31806666     0.00700
H2830       H  0.92715738  0.65038690  0.24058532     0.15200
H2831       H  0.92097336  0.63914034  0.41276172     0.15000
N2832       N  0.81329884  0.02330676  0.07885295    -0.03200
C2833       C  0.78857528  0.99159777  0.09220707    -0.00600
C2834       C  0.79701360  0.97530505  0.13154222    -0.23500
C2835       C  0.82672579  0.99664543  0.14360988    -0.23700
C2836       C  0.83551689  0.02576491  0.11322331    -0.00700
H2837       H  0.78175507  0.95214754  0.15631485     0.13100
H2838       H  0.83850906  0.99300668  0.17776116     0.13100
N2839       N  0.96054300  0.91595004  0.26312056    -0.27000
N2840       N  0.93800712  0.92419310  0.26862061    -0.34800
C2841       C  0.90908971  0.89685781  0.27266692     0.01400
C2842       C  0.91314600  0.86983218  0.26827599     0.07400
C2843       C  0.94624212  0.88300673  0.26215093    -0.05700
H2844       H  0.88670150  0.89645455  0.28243416     0.08100
H2845       H  0.95891006  0.86947029  0.26010777     0.09300
Cu2846     Cu  0.94719567  0.97209362  0.27483153     0.44200
Cu2847     Cu  0.50473325  0.94594265  0.28431115     0.42000
Cu2848     Cu  0.52800442  0.53402042  0.30661472     0.43900
N2849       N  0.96039548  0.02070540  0.28608092    -0.34400
N2850       N  0.98794674  0.54516754  0.30616682    -0.28600
C2851       C  0.98737174  0.57319688  0.31260453    -0.04700
C2852       C  0.95644945  0.56725045  0.30813007     0.07500
C2853       C  0.94093506  0.03358702  0.29165920     0.01300
H2854       H  0.00788324  0.59603498  0.32062872     0.08900
H2855       H  0.91547015  0.01995392  0.28875320     0.08000
N2856       N  0.56071818  0.51730612  0.30040765    -0.35800
N2857       N  0.55262939  0.48641107  0.29438428    -0.28000
C2858       C  0.57916311  0.48377099  0.29257559    -0.03200
C2859       C  0.60540427  0.51446543  0.29685149     0.05400
C2860       C  0.59266555  0.53507059  0.30213180     0.03500
H2861       H  0.57820101  0.95850941  0.28642346     0.08600
H2862       H  0.60556402  0.56105170  0.30695072     0.07400
C2863       C  0.86061618  0.58684447  0.45683902    -0.05500
C2864       C  0.87454103  0.57135066  0.42501922     0.00500
C2865       C  0.86268974  0.53719195  0.44102819    -0.08100
C2866       C  0.83798966  0.52430136  0.97496336    -0.05500
C2867       C  0.82606961  0.03796370  0.02098124     0.00400
C2868       C  0.84071245  0.07145697  0.50268418    -0.08000
C2869       C  0.82791436  0.09132903  0.53188325     0.62400
H2870       H  0.86796158  0.61224849  0.44483159     0.13100
H2871       H  0.82914965  0.49843200  0.98567404     0.13100
C2872       C  0.87793615  0.51778626  0.41838635     0.62600
F2873       F  0.85294051  0.11950240  0.54786100    -0.22600
F2874       F  0.80323708  0.07469270  0.08063296    -0.19900
F2875       F  0.81228122  0.10010688  0.49459855    -0.19600
F2876       F  0.91070509  0.53750674  0.40827528    -0.19600
F2877       F  0.86495508  0.50410293  0.37003896    -0.20000
F2878       F  0.87693863  0.49927657  0.95711215    -0.22600
C2879       C  0.90519950  0.57817609  0.18127754    -0.05500
C2880       C  0.88883353  0.58602847  0.22336348     0.00500
C2881       C  0.85816772  0.58137478  0.21627753    -0.08100
C2882       C  0.84436606  0.56787497  0.16728615    -0.05500
C2883       C  0.85936199  0.55690340  0.12792246     0.00400
C2884       C  0.89116476  0.56417200  0.13297733    -0.08000
C2885       C  0.91051805  0.55640498  0.08943083     0.62400
H2886       H  0.92898210  0.58254352  0.18675544     0.13100
H2887       H  0.82547609  0.06991043  0.16234101     0.13100
C2888       C  0.84012759  0.59020546  0.26070955     0.62600
F2889       F  0.91551165  0.53207540  0.11270271    -0.22600
F2890       F  0.93982192  0.58432429  0.07316454    -0.19900
F2891       F  0.88925154  0.03259187  0.05568843    -0.19600
F2892       F  0.85744058  0.62334293  0.26683929    -0.19600
F2893       F  0.83575142  0.57271697  0.31199055    -0.20000
F2894       F  0.82016567  0.09762191  0.23895947    -0.22600
C2895       C  0.66301325  0.57432897  0.42920868    -0.05500
C2896       C  0.68828347  0.56985779  0.40745244     0.00500
C2897       C  0.71784086  0.58608165  0.43144006    -0.08100
C2898       C  0.72111889  0.60748292  0.47386558    -0.05500
C2899       C  0.69673830  0.61436407  0.49163118     0.00400
C2900       C  0.66668101  0.59640909  0.47009542    -0.08000
C2901       C  0.63808279  0.60970873  0.97753666     0.62400
H2902       H  0.64031511  0.56098511  0.41218513     0.13100
H2903       H  0.74404794  0.62158626  0.48982422     0.13100
C2904       C  0.74691849  0.58342531  0.40982117     0.62600
F2905       F  0.61731314  0.59917184  0.93640220    -0.22600
F2906       F  0.64995536  0.64299659  0.97870017    -0.19900
F2907       F  0.62044211  0.59366670  0.02841703    -0.19600
F2908       F  0.75174233  0.58769988  0.35149346    -0.19600
F2909       F  0.74271028  0.55313149  0.42788249    -0.20000
F2910       F  0.77457394  0.60707858  0.42928393    -0.22600
C2911       C  0.67480656  0.59588639  0.19224133    -0.05500
C2912       C  0.70035994  0.59180184  0.20671250     0.00500
C2913       C  0.73144097  0.61276628  0.17683145    -0.08100
C2914       C  0.73482843  0.63521596  0.13168979    -0.05500
C2915       C  0.70885097  0.63808271  0.11620057     0.00400
C2916       C  0.67842370  0.61871208  0.14815114    -0.08000
C2917       C  0.64889605  0.62105265  0.13899174     0.62400
H2918       H  0.65117313  0.58045206  0.21497008     0.13100
H2919       H  0.75789074  0.65059821  0.10710309     0.13100
C2920       C  0.76142498  0.61326610  0.19344798     0.62600
F2921       F  0.62416733  0.59032505  0.13109548    -0.22600
F2922       F  0.65375737  0.64291930  0.09365889    -0.19900
F2923       F  0.63947605  0.63111642  0.18670707    -0.19600
F2924       F  0.76194117  0.58537440  0.17944532    -0.19600
F2925       F  0.76254543  0.61565533  0.25086160    -0.20000
F2926       F  0.78902390  0.63984410  0.16600102    -0.22600
C2927       C  0.91600254  0.79087274  0.47692343    -0.05500
C2928       C  0.90400942  0.75723159  0.49030712     0.00500
C2929       C  0.87814663  0.73446469  0.46274372    -0.08100
C2930       C  0.86849838  0.74591240  0.41693896    -0.05500
C2931       C  0.88255052  0.77949419  0.39970463     0.00400
C2932       C  0.90503034  0.80246500  0.43286720    -0.08000
C2933       C  0.91782305  0.83895153  0.42164062     0.62400
H2934       H  0.42697727  0.80327094  0.50603538     0.13100
H2935       H  0.85006805  0.72827187  0.39369084     0.13100
C2936       C  0.85325269  0.69456238  0.97120152     0.62600
F2937       F  0.42102404  0.85002120  0.47995766    -0.22600
F2938       F  0.89273163  0.84502751  0.41765977    -0.19900
F2939       F  0.93813000  0.85059422  0.37186501    -0.19600
F2940       F  0.82088757  0.68413653  0.98163101    -0.19600
F2941       F  0.86222791  0.68499269  0.01889494    -0.20000
F2942       F  0.85804942  0.67933799  0.92600112    -0.22600
C2943       C  0.92164594  0.79299123  0.17320695    -0.05500
C2944       C  0.89299597  0.76952849  0.20549999     0.00500
C2945       C  0.87836960  0.73651333  0.19143530    -0.08100
C2946       C  0.89035399  0.72921225  0.14160377    -0.05500
C2947       C  0.91807222  0.75289316  0.10793148     0.00400
C2948       C  0.93469787  0.78515118  0.12496288    -0.08000
C2949       C  0.46410485  0.81195754  0.10742781     0.62400
H2950       H  0.93308832  0.81813805  0.18395473     0.13100
H2951       H  0.87812366  0.70449864  0.12914570     0.13100
C2952       C  0.85037366  0.70820937  0.22809636     0.62600
F2953       F  0.48681728  0.82372933  0.14512591    -0.22600
F2954       F  0.45942215  0.83720499  0.08772529    -0.19900
F2955       F  0.47607163  0.80228593  0.06221894    -0.19600
F2956       F  0.85376836  0.68064416  0.22858942    -0.19600
F2957       F  0.82215378  0.70096937  0.20632823    -0.20000
F2958       F  0.84859485  0.71527947  0.28362890    -0.22600
C2959       C  0.99903529  0.69297482  0.33543347    -0.05500
C2960       C  0.96719578  0.68049848  0.32272184     0.00500
C2961       C  0.95755005  0.70410263  0.30825598    -0.08100
C2962       C  0.98070469  0.73787724  0.30153104    -0.05500
C2963       C  0.01129637  0.74962861  0.31850696     0.00400
C2964       C  0.02098339  0.72665841  0.33353027    -0.08000
C2965       C  0.05331386  0.73650994  0.35393553     0.62400
H2966       H  0.00685609  0.67661232  0.35143193     0.13100
H2967       H  0.97316722  0.75561969  0.29192828     0.13100
C2968       C  0.92317194  0.69617145  0.30386749     0.62600
F2969       F  0.04882603  0.72531670  0.41046266    -0.22600
F2970       F  0.57284302  0.76419237  0.39913362    -0.19900
F2971       F  0.06805020  0.72233218  0.32329677    -0.19600
F2972       F  0.91747231  0.71897056  0.32954809    -0.19600
F2973       F  0.90071295  0.66592307  0.33058272    -0.20000
F2974       F  0.91853624  0.69767308  0.24744684    -0.22600
C2975       C  0.69976413  0.93807819  0.12611521    -0.05500
C2976       C  0.68806173  0.96035298  0.12417339     0.00500
C2977       C  0.70950666  0.99235944  0.09577227    -0.08100
C2978       C  0.74232155  0.00176227  0.08210655    -0.05500
C2979       C  0.75362541  0.97952137  0.08836829     0.00400
C2980       C  0.73053298  0.94613777  0.10347275    -0.08000
C2981       C  0.73596317  0.91743552  0.09350175     0.62400
H2982       H  0.68343121  0.91238340  0.13939646     0.13100
H2983       H  0.75919141  0.02641999  0.06524687     0.13100
C2984       C  0.69872843  0.01632273  0.07668162     0.62600
F2985       F  0.71252113  0.89588579  0.06269317    -0.22600
F2986       F  0.73345780  0.90096163  0.14480925    -0.19900
F2987       F  0.76528908  0.92680326  0.06348433    -0.19600
F2988       F  0.69019214  0.02838113  0.12248449    -0.19600
F2989       F  0.67324653  0.00116094  0.04515485    -0.20000
F2990       F  0.72294651  0.04315126  0.04307166    -0.22600
C2991       C  0.56767261  0.89089618  0.01408420    -0.05500
C2992       C  0.59366608  0.88850506  0.03111696     0.00500
C2993       C  0.60373051  0.87033570  0.49695152    -0.08100
C2994       C  0.58649779  0.85428399  0.45267004    -0.05500
C2995       C  0.55741674  0.85273543  0.44438306     0.00400
C2996       C  0.05220798  0.87944869  0.42177628    -0.08000
C2997       C  0.01951028  0.87682373  0.42447774     0.62400
H2998       H  0.06214944  0.91678815  0.99174072     0.13100
H2999       H  0.59278833  0.83832816  0.43020285     0.13100
C3000       C  0.63008393  0.86370549  0.51307427     0.62600
F3001       F  0.00101650  0.87204295  0.98441342    -0.22600
F3002       F  0.99836522  0.85197433  0.39540628    -0.19900
F3003       F  0.02301308  0.90620454  0.40216055    -0.19600
F3004       F  0.62766385  0.85780791  0.57114962    -0.19600
F3005       F  0.65981475  0.89006043  0.49354084    -0.20000
F3006       F  0.62794809  0.83635572  0.48974000    -0.22600
C3007       C  0.55249777  0.86127491  0.25031975    -0.05500
C3008       C  0.58368868  0.86738315  0.23213934     0.00500
C3009       C  0.59480277  0.84835111  0.26121140    -0.08100
C3010       C  0.57639993  0.82777636  0.31037548    -0.05500
C3011       C  0.54641389  0.82344067  0.32989707     0.00400
C3012       C  0.03771809  0.84638877  0.24702284    -0.08000
C3013       C  0.00669692  0.84511536  0.26800007     0.62400
H3014       H  0.54292263  0.87459429  0.22850211     0.13100
H3015       H  0.58586205  0.81539261  0.33516465     0.13100
C3016       C  0.62612318  0.84941850  0.24361656     0.62600
F3017       F  0.01352235  0.87443106  0.28942447    -0.22600
F3018       F  0.98797632  0.81922351  0.30858119    -0.19900
F3019       F  0.98886796  0.84111241  0.22345768    -0.19600
F3020       F  0.65000141  0.87354772  0.27010576    -0.19600
F3021       F  0.63388623  0.85499855  0.18562416    -0.20000
F3022       F  0.62426064  0.81991170  0.26004742    -0.22600
C3023       C  0.48701155  0.73884676  0.13082462    -0.05500
C3024       C  0.45797169  0.71561086  0.11335590     0.00500
C3025       C  0.44767672  0.68202468  0.12554828    -0.08100
C3026       C  0.46786021  0.67287834  0.15094690    -0.05500
C3027       C  0.49903582  0.69577083  0.16310065     0.00400
C3028       C  0.50813459  0.72993593  0.15437886    -0.08000
C3029       C  0.54037695  0.75764243  0.16674587     0.62400
H3030       H  0.49440405  0.76440886  0.12061520     0.13100
H3031       H  0.46003100  0.64715919  0.15505077     0.13100
C3032       C  0.91322110  0.65795783  0.11036998     0.62600
F3033       F  0.53813277  0.78585146  0.65794558    -0.22600
F3034       F  0.56510664  0.75568007  0.13729991    -0.19900
F3035       F  0.54244165  0.75614685  0.22423391    -0.19600
F3036       F  0.89535672  0.64312218  0.16147182    -0.19600
F3037       F  0.91520370  0.63489601  0.07874152    -0.20000
F3038       F  0.89697480  0.67030686  0.08251313    -0.22600
C3039       C  0.74597192  0.77810537  0.30980430    -0.05500
C3040       C  0.72617731  0.74429021  0.30532251     0.00500
C3041       C  0.74149032  0.72694125  0.28554810    -0.08100
C3042       C  0.77524794  0.74262700  0.27768250    -0.05500
C3043       C  0.79537095  0.77534842  0.29007523     0.00400
C3044       C  0.77958992  0.79248336  0.31095052    -0.08000
C3045       C  0.79571414  0.82363394  0.34139037     0.62400
H3046       H  0.73428077  0.79133867  0.32541309     0.13100
H3047       H  0.78555685  0.72753208  0.26640107     0.13100
C3048       C  0.72322379  0.69075919  0.27731227     0.62600
F3049       F  0.77422668  0.82410073  0.38301117    -0.22600
F3050       F  0.80648440  0.85089020  0.30337899    -0.19900
F3051       F  0.82086038  0.82592468  0.36859610    -0.19600
F3052       F  0.69069402  0.67895518  0.28039271    -0.19600
F3053       F  0.72907429  0.67321843  0.31818570    -0.20000
F3054       F  0.73338173  0.68563656  0.22469295    -0.22600
C3055       C  0.60507449  0.66858257  0.46339619    -0.05500
C3056       C  0.62454116  0.70105851  0.43994008     0.00500
C3057       C  0.61960369  0.72577195  0.46257742    -0.08100
C3058       C  0.59829659  0.71765396  0.51237523    -0.05500
C3059       C  0.58163382  0.68609949  0.04048557     0.00400
C3060       C  0.58078181  0.66076347  0.00918105    -0.08000
C3061       C  0.55852164  0.62478754  0.02807900     0.62400
H3062       H  0.60970224  0.64990422  0.44841971     0.13100
H3063       H  0.59608491  0.73675711  0.53258511     0.13100
C3064       C  0.63804992  0.76086044  0.43555282     0.62600
F3065       F  0.52836683  0.61925927  0.04763649    -0.22600
F3066       F  0.57106765  0.61518967  0.07015853    -0.19900
F3067       F  0.55509770  0.60552320  0.98382192    -0.19600
F3068       F  0.63277598  0.76150668  0.37939831    -0.19600
F3069       F  0.67046712  0.77383927  0.43842522    -0.20000
F3070       F  0.62851001  0.78069639  0.46217648    -0.22600
C3071       C  0.59949549  0.66988563  0.26470006    -0.05500
C3072       C  0.59955003  0.69603388  0.23385977     0.00500
C3073       C  0.62506103  0.72834208  0.23782359    -0.08100
C3074       C  0.64803804  0.73346231  0.27577426    -0.05500
C3075       C  0.64665582  0.70741757  0.30941086     0.00400
C3076       C  0.62251472  0.67481169  0.30201737    -0.08000
C3077       C  0.61979172  0.64409914  0.33150091     0.62400
H3078       H  0.58078856  0.64506949  0.26029228     0.13100
H3079       H  0.66666981  0.75809185  0.28116594     0.13100
C3080       C  0.62815278  0.75730176  0.20188521     0.62600
F3081       F  0.59012958  0.62625588  0.36309264    -0.22600
F3082       F  0.64347580  0.65060399  0.36615675    -0.19900
F3083       F  0.62198389  0.62469778  0.29159274    -0.19600
F3084       F  0.60337451  0.76265333  0.21960213    -0.19600
F3085       F  0.65674023  0.78570669  0.20611005    -0.20000
F3086       F  0.62698047  0.75101923  0.14559323    -0.22600
C3087       C  0.69325406  0.43574268  0.33116773    -0.05500
C3088       C  0.72469516  0.44715292  0.30688684     0.00500
C3089       C  0.73880800  0.47479789  0.26716524    -0.08100
C3090       C  0.72312696  0.49281761  0.25860840    -0.05500
C3091       C  0.69337811  0.48447003  0.28905139     0.00400
C3092       C  0.67739620  0.45402783  0.32477129    -0.08000
C3093       C  0.64448071  0.44040894  0.35867445     0.62400
H3094       H  0.68473519  0.91189574  0.34965460     0.13100
H3095       H  0.73666967  0.51580762  0.23289590     0.13100
C3096       C  0.77288033  0.48869670  0.24117331     0.62600
F3097       F  0.63816658  0.90890293  0.38462201    -0.22600
F3098       F  0.62079649  0.42754607  0.32303525    -0.19900
F3099       F  0.64209072  0.46393927  0.38800023    -0.19600
F3100       F  0.77897773  0.50923591  0.19318412    -0.19600
F3101       F  0.77793201  0.46359194  0.22602487    -0.20000
F3102       F  0.79373465  0.50603953  0.27951456    -0.22600
C3103       C  0.75712582  0.76589229  0.14584982    -0.05500
C3104       C  0.79077172  0.78354936  0.13015493     0.00500
C3105       C  0.80424047  0.76584462  0.10195925    -0.08100
C3106       C  0.78375159  0.73259406  0.09204994    -0.05500
C3107       C  0.75023794  0.71731959  0.10135174     0.00400
C3108       C  0.73680985  0.73427392  0.12968555    -0.08000
C3109       C  0.70081632  0.72013056  0.13888179     0.62400
H3110       H  0.74576817  0.77859504  0.16448887     0.13100
H3111       H  0.79342008  0.71934602  0.06937881     0.12700
C3112       C  0.83927505  0.78136741  0.07754536     0.62600
F3113       F  0.69223802  0.73990570  0.16827050    -0.22600
F3114       F  0.68705177  0.69007916  0.16971310    -0.19900
F3115       F  0.68856758  0.71635309  0.08749417    -0.19600
F3116       F  0.85869292  0.78961028  0.12043246    -0.19600
F3117       F  0.84794842  0.80866765  0.04067530    -0.20000
F3118       F  0.84510278  0.76005381  0.04728364    -0.22600
C3119       C  0.81187892  0.91287305  0.42649996    -0.05500
C3120       C  0.77899207  0.89985825  0.42321495     0.00500
C3121       C  0.75662336  0.87350515  0.46238979    -0.08100
C3122       C  0.76551690  0.86423323  0.00966886    -0.05500
C3123       C  0.79836596  0.87706384  0.01310078     0.00400
C3124       C  0.82065456  0.89761718  0.96674386    -0.08000
C3125       C  0.85539441  0.90622982  0.96225147     0.62400
H3126       H  0.82870885  0.93329378  0.39649112     0.13100
H3127       H  0.74854708  0.84645293  0.04327430     0.13100
C3128       C  0.72131209  0.85479314  0.45461757     0.62600
F3129       F  0.87568310  0.93253379  0.41948797    -0.22600
F3130       F  0.85717814  0.87785909  0.96942007    -0.19900
F3131       F  0.87041954  0.92645401  0.00325708    -0.19600
F3132       F  0.71796807  0.83869325  0.40640869    -0.19600
F3133       F  0.70900153  0.87564990  0.44896916    -0.20000
F3134       F  0.70332261  0.83160948  0.49977047    -0.22600
C3135       C  0.79894545  0.92295969  0.27960619    -0.05500
C3136       C  0.76608726  0.90723386  0.29777921     0.00500
C3137       C  0.74540481  0.87921484  0.27096284    -0.08100
C3138       C  0.75847459  0.86870834  0.22659961    -0.05500
C3139       C  0.79154653  0.88441247  0.20846017     0.00400
C3140       C  0.81216026  0.91211178  0.23649448    -0.08000
C3141       C  0.84807917  0.93041769  0.22318280     0.62400
H3142       H  0.81146122  0.44232268  0.29909263     0.13100
H3143       H  0.74245764  0.84723521  0.20649420     0.13100
C3144       C  0.70974044  0.85877997  0.28727673     0.62600
F3145       F  0.85989513  0.44555370  0.26715102    -0.22600
F3146       F  0.85610336  0.95129515  0.17495466    -0.19900
F3147       F  0.85902327  0.90868660  0.21597168    -0.19600
F3148       F  0.69894725  0.87005270  0.33157838    -0.19600
F3149       F  0.70176186  0.82673059  0.30272467    -0.20000
F3150       F  0.69441602  0.85902165  0.24082012    -0.22600
C3151       C  0.80704384  0.82151307  0.62491701     0.86800
C3152       C  0.84378266  0.84396656  0.62425092    -0.53400
C3153       C  0.85442009  0.87707004  0.61564522     0.09700
C3154       C  0.82706936  0.88496190  0.61197896     0.20700
C3155       C  0.79360904  0.83451583  0.67267626    -0.54200
C3156       C  0.80407359  0.86753264  0.66697894     0.09800
C3157       C  0.79934681  0.83313175  0.57045528    -0.53700
C3158       C  0.80935446  0.86565425  0.56324670     0.10400
H3159       H  0.86005137  0.83539134  0.63297768     0.14900
H3160       H  0.83468552  0.91140305  0.60620779     0.00700
H3161       H  0.77706125  0.81886438  0.70843697     0.15200
H3162       H  0.78610483  0.81643178  0.53984473     0.15000
N3163       N  0.75671750  0.91986873  0.84475532    -0.03200
C3164       C  0.74885991  0.94416153  0.84435316    -0.00600
C3165       C  0.75575923  0.46098310  0.89107421    -0.23500
C3166       C  0.76800902  0.94576273  0.92549689    -0.23700
C3167       C  0.76845167  0.92152898  0.89561124    -0.00700
H3168       H  0.75248411  0.48135570  0.90186718     0.13100
H3169       H  0.77537805  0.95192712  0.96699130     0.13100
N3170       N  0.66496676  0.71585511  0.85296953    -0.03200
C3171       C  0.69738077  0.72788170  0.84997037    -0.00600
C3172       C  0.70641470  0.72836308  0.90347520    -0.23500
C3173       C  0.67968989  0.71659250  0.94102725    -0.23700
C3174       C  0.65475329  0.70974541  0.90971879    -0.00700
H3175       H  0.73076419  0.73917385  0.91344769     0.13100
H3176       H  0.67876971  0.71551219  0.98659409     0.13100
C3177       C  0.52242456  0.68247075  0.66225673     0.86800
C3178       C  0.50899710  0.64513857  0.67734954    -0.53400
C3179       C  0.53100048  0.63497714  0.66959949     0.09700
C3180       C  0.56503672  0.66311809  0.64891633     0.20700
C3181       C  0.54960003  0.69768711  0.70112591    -0.54200
C3182       C  0.57229082  0.68811382  0.69338789     0.09800
C3183       C  0.53965514  0.68950732  0.60195118    -0.53700
C3184       C  0.56153017  0.67940847  0.59433230     0.10400
H3185       H  0.48455069  0.62802876  0.69508830     0.14900
H3186       H  0.58328528  0.65535601  0.64288720     0.00700
H3187       H  0.54930797  0.71149383  0.73596955     0.15200
H3188       H  0.53459245  0.70149575  0.56737691     0.15000
C3189       C  0.65396692  0.94378989  0.62597169     0.86800
C3190       C  0.63477380  0.96174869  0.63789238    -0.53400
C3191       C  0.60206790  0.94151527  0.64126741     0.09700
C3192       C  0.59177971  0.90523513  0.63408562     0.20700
C3193       C  0.63957634  0.91641395  0.67599844    -0.54200
C3194       C  0.60707885  0.89536964  0.68020616     0.09800
C3195       C  0.64144825  0.92686086  0.57291514    -0.53700
C3196       C  0.60957322  0.90629651  0.57704263     0.10400
H3197       H  0.64494354  0.98724409  0.64469539     0.14900
H3198       H  0.56569261  0.88858289  0.63515502     0.00700
H3199       H  0.65428114  0.91630304  0.70770155     0.15200
H3200       H  0.65683464  0.93277224  0.53346102     0.15000
N3201       N  0.03312016  0.81772322  0.83130678    -0.03200
C3202       C  0.01879839  0.78530284  0.85085274    -0.00600
C3203       C  0.00859376  0.78077883  0.90775620    -0.23500
C3204       C  0.01661572  0.81066487  0.92497338    -0.23700
C3205       C  0.03236643  0.83316631  0.87837401    -0.00700
H3206       H  0.99834459  0.75812641  0.93444747     0.13100
H3207       H  0.01599468  0.81605766  0.96854428     0.13100
N3208       N  0.55530127  0.98365981  0.65722421    -0.27000
N3209       N  0.53235597  0.95293372  0.65592680    -0.34800
C3210       C  0.54546594  0.93364958  0.65139091     0.01400
C3211       C  0.57839823  0.95291051  0.64942253     0.07400
C3212       C  0.58382014  0.98462508  0.65312417    -0.05700
H3213       H  0.03551205  0.91266074  0.60081674     0.08100
H3214       H  0.60672480  0.00679648  0.65250049     0.09300
Cu3215     Cu  0.98770110  0.94033765  0.62612409     0.44200
Cu3216     Cu  0.54351629  0.52253319  0.66555660     0.42000
Cu3217     Cu  0.96092665  0.49650323  0.63369225     0.43900
N3218       N  0.94091181  0.92859374  0.62132710    -0.34400
N3219       N  0.93237573  0.95126146  0.61983947    -0.28600
C3220       C  0.90097171  0.93673752  0.61384915    -0.04700
C3221       C  0.88877596  0.90306479  0.61372627     0.07500
C3222       C  0.91510529  0.89897374  0.61799686     0.01300
H3223       H  0.88790990  0.94979134  0.61148197     0.08900
H3224       H  0.91549460  0.87615225  0.61973014     0.08000
N3225       N  0.49589345  0.54659387  0.66397556    -0.35800
N3226       N  0.52558480  0.55461017  0.67212669    -0.28000
C3227       C  0.54207825  0.58675616  0.68003782    -0.03200
C3228       C  0.52200354  0.59979594  0.67617795     0.05400
C3229       C  0.49284997  0.57345932  0.66696933     0.03500
H3230       H  0.56737027  0.60006171  0.68467535     0.08600
H3231       H  0.47171957  0.57445171  0.65880604     0.07400
C3232       C  0.82898047  0.79036923  0.78673170     0.86800
C3233       C  0.84281280  0.77543586  0.74394018    -0.53400
C3234       C  0.87383514  0.78316458  0.74805191     0.09700
C3235       C  0.88914925  0.80678890  0.79378249     0.20700
C3236       C  0.83543397  0.78058733  0.84461588    -0.54200
C3237       C  0.86660179  0.78935037  0.84888673     0.09800
C3238       C  0.85309511  0.82742809  0.77403427    -0.53700
C3239       C  0.88443802  0.83626777  0.77901785     0.10400
H3240       H  0.82963920  0.76064098  0.71152747     0.14900
H3241       H  0.91436120  0.81329162  0.79716504     0.00700
H3242       H  0.81652398  0.76689359  0.87918651     0.15200
H3243       H  0.84665260  0.84506456  0.75898178     0.15000
N3244       N  0.93080077  0.74366728  0.56805127    -0.03200
C3245       C  0.44177617  0.72357541  0.56826489    -0.00600
C3246       C  0.44704412  0.71833495  0.51277876    -0.23500
C3247       C  0.93200116  0.72661518  0.97126021    -0.23700
C3248       C  0.92577487  0.74703393  0.51309591    -0.00700
H3249       H  0.45917467  0.70557244  0.49727818     0.13100
H3250       H  0.92819049  0.72180542  0.92766407     0.13100
C3251       C  0.68140072  0.51188390  0.79744360     0.86800
C3252       C  0.64572530  0.49915023  0.79375250    -0.53400
C3253       C  0.63621915  0.52186377  0.80079697     0.09700
C3254       C  0.66433951  0.55658999  0.80740345     0.20700
C3255       C  0.69692954  0.54051618  0.74979277    -0.54200
C3256       C  0.68872698  0.56434786  0.75473540     0.09800
C3257       C  0.68842040  0.52842721  0.85325868    -0.53700
C3258       C  0.68050255  0.55248295  0.85845670     0.10400
H3259       H  0.62965864  0.47510308  0.78219528     0.14900
H3260       H  0.65710184  0.57545127  0.81189087     0.00700
H3261       H  0.71069680  0.54014135  0.71227241     0.15200
H3262       H  0.69749330  0.52022204  0.88668170     0.15000
N3263       N  0.71452478  0.65820963  0.56416875    -0.03200
C3264       C  0.73251139  0.69189265  0.55619066    -0.00600
C3265       C  0.73724888  0.70201195  0.49952330    -0.23500
C3266       C  0.71952989  0.67767848  0.97516688    -0.23700
C3267       C  0.70774604  0.64786592  0.51126008    -0.00700
H3268       H  0.75300545  0.72679331  0.48075867     0.13100
H3269       H  0.71964576  0.67772896  0.92968778     0.13100
C3270       C  0.94835622  0.64871460  0.82152827     0.86800
C3271       C  0.96744463  0.63003713  0.81653508    -0.53400
C3272       C  0.94881296  0.59685047  0.81566850     0.09700
C3273       C  0.91270036  0.58524421  0.81968302     0.20700
C3274       C  0.92872032  0.63819803  0.77108583    -0.54200
C3275       C  0.91004278  0.60533016  0.77067188     0.09800
C3276       C  0.92385284  0.63112142  0.87483573    -0.53700
C3277       C  0.90451709  0.59762249  0.87428882     0.10400
H3278       H  0.99335403  0.64182771  0.81023270     0.14900
H3279       H  0.89377314  0.05463552  0.81863102     0.00700
H3280       H  0.93033484  0.65503219  0.73713411     0.15200
H3281       H  0.92210304  0.64454261  0.90963356     0.15000
N3282       N  0.81691503  0.02363407  0.57825189    -0.03200
C3283       C  0.79181181  0.99201415  0.59036834    -0.00600
C3284       C  0.79903120  0.97535419  0.63118208    -0.23500
C3285       C  0.82847799  0.99627502  0.64505497    -0.23700
C3286       C  0.83815857  0.02564457  0.61462566    -0.00700
H3287       H  0.78305912  0.95210255  0.65524965     0.13100
H3288       H  0.83950755  0.99209178  0.67994683     0.13100
N3289       N  0.95855161  0.91685985  0.76487189    -0.27000
N3290       N  0.93632381  0.92529813  0.77396101    -0.34800
C3291       C  0.90722960  0.89823778  0.77974393     0.01400
C3292       C  0.91073713  0.87116845  0.77250406     0.07400
C3293       C  0.94372550  0.88388240  0.76374698    -0.05700
H3294       H  0.88516037  0.89799242  0.79224776     0.08100
H3295       H  0.95589163  0.86997032  0.75923511     0.09300
Cu3296     Cu  0.94618901  0.97299853  0.78142629     0.44200
Cu3297     Cu  0.50685500  0.94966070  0.78119264     0.42000
Cu3298     Cu  0.52417351  0.53157171  0.80802571     0.43900
N3299       N  0.95934035  0.02125969  0.79263590    -0.34400
N3300       N  0.99332374  0.55195811  0.80554566    -0.28600
C3301       C  0.99292926  0.58021455  0.81137338    -0.04700
C3302       C  0.96192674  0.57429492  0.80766605     0.07500
C3303       C  0.93975012  0.03388250  0.79887975     0.01300
H3304       H  0.01354136  0.60315182  0.81868347     0.08900
H3305       H  0.91423836  0.02005973  0.79657776     0.08000
N3306       N  0.55742205  0.51579427  0.80108032    -0.35800
N3307       N  0.54994945  0.48549286  0.79140927    -0.28000
C3308       C  0.57659437  0.48306275  0.79030137    -0.03200
C3309       C  0.60225515  0.51337227  0.79891917     0.05400
C3310       C  0.58904192  0.53346881  0.80581133     0.03500
H3311       H  0.57956080  0.96118162  0.78438265     0.08600
H3312       H  0.60135697  0.55902617  0.81392025     0.07400
C3313       C  0.86157109  0.59079752  0.95066215    -0.05500
C3314       C  0.87686937  0.57619996  0.92003839     0.00500
C3315       C  0.86481532  0.54186024  0.93410529    -0.08100
C3316       C  0.83766335  0.52077742  0.48554775    -0.05500
C3317       C  0.83089008  0.03835350  0.52077927     0.00400
C3318       C  0.83759062  0.07162066  0.00470619    -0.08000
C3319       C  0.82648964  0.09222976  0.03600458     0.62400
H3320       H  0.86891781  0.61630670  0.93976865     0.13100
H3321       H  0.82889109  0.49508688  0.49805327     0.13100
C3322       C  0.88213877  0.52359731  0.91574170     0.62600
F3323       F  0.85217890  0.11774669  0.05667342    -0.22600
F3324       F  0.80684081  0.07463911  0.57946072    -0.19900
F3325       F  0.81404588  0.10518409  0.99897306    -0.19600
F3326       F  0.91479593  0.54448085  0.90752885    -0.19600
F3327       F  0.87087612  0.50854951  0.86737488    -0.20000
F3328       F  0.87244007  0.49223549  0.45722733    -0.22600
C3329       C  0.90610073  0.57544937  0.68688874    -0.05500
C3330       C  0.89305248  0.58995595  0.72234899     0.00500
C3331       C  0.86373371  0.58803644  0.71295087    -0.08100
C3332       C  0.84774755  0.57053905  0.66860927    -0.05500
C3333       C  0.85955479  0.55397476  0.63551930     0.00400
C3334       C  0.89001797  0.55789165  0.64268362    -0.08000
C3335       C  0.90597124  0.54335870  0.60563658     0.62400
H3336       H  0.92880809  0.57747006  0.69438431     0.13100
H3337       H  0.82751639  0.06967497  0.66252451     0.13100
C3338       C  0.84870934  0.60289762  0.75137366     0.62600
F3339       F  0.91089524  0.52168214  0.63869495    -0.22600
F3340       F  0.93517719  0.56839008  0.58009734    -0.19900
F3341       F  0.89139290  0.02864282  0.56488870    -0.19600
F3342       F  0.86800408  0.63648567  0.74598954    -0.19600
F3343       F  0.84551357  0.59104783  0.80712815    -0.20000
F3344       F  0.82207568  0.09909687  0.73625086    -0.22600
C3345       C  0.66081622  0.57846330  0.92771036    -0.05500
C3346       C  0.68553413  0.57239878  0.90884419     0.00500
C3347       C  0.71474102  0.58837251  0.93411790    -0.08100
C3348       C  0.71721294  0.60864388  0.97805516    -0.05500
C3349       C  0.69372473  0.61724423  0.99249166     0.00400
C3350       C  0.66489181  0.60184393  0.96626582    -0.08000
C3351       C  0.63822257  0.60021284  0.48994215     0.62400
H3352       H  0.63838505  0.56573828  0.90963476     0.13100
H3353       H  0.73950181  0.62148225  0.99659264     0.13100
C3354       C  0.74489910  0.58832966  0.91038692     0.62600
F3355       F  0.61261150  0.58341702  0.45916745    -0.22600
F3356       F  0.64657898  0.63287700  0.48442564    -0.19900
F3357       F  0.62805318  0.58748016  0.54578047    -0.19600
F3358       F  0.74995500  0.59582554  0.85255725    -0.19600
F3359       F  0.74245960  0.55822809  0.92283403    -0.20000
F3360       F  0.77177593  0.61163780  0.93239387    -0.22600
C3361       C  0.67430364  0.59934035  0.69617187    -0.05500
C3362       C  0.69795989  0.59161341  0.70869811     0.00500
C3363       C  0.72850569  0.60888011  0.67529636    -0.08100
C3364       C  0.73284225  0.63064998  0.62836284    -0.05500
C3365       C  0.70873404  0.63726535  0.61509409     0.00400
C3366       C  0.67904983  0.62180123  0.65028433    -0.08000
C3367       C  0.65242513  0.62949351  0.64339775     0.62400
H3368       H  0.65120174  0.58689075  0.72152129     0.13100
H3369       H  0.75538700  0.64275569  0.60113444     0.13100
C3370       C  0.75726781  0.60565848  0.68768481     0.62600
F3371       F  0.62274052  0.60159080  0.65679105    -0.22600
F3372       F  0.65366018  0.64147628  0.58909232    -0.19900
F3373       F  0.65492743  0.65264645  0.67936329    -0.19600
F3374       F  0.75815558  0.58155710  0.65768456    -0.19600
F3375       F  0.75642443  0.59828757  0.74467803    -0.20000
F3376       F  0.78547085  0.63483940  0.67159474    -0.22600
C3377       C  0.91039753  0.78696400  0.97437605    -0.05500
C3378       C  0.89840488  0.75305560  0.98409776     0.00500
C3379       C  0.87168617  0.73141685  0.95688126    -0.08100
C3380       C  0.86178809  0.74430584  0.91367277    -0.05500
C3381       C  0.87625719  0.77815293  0.89936773     0.00400
C3382       C  0.89886077  0.79987926  0.93350915    -0.08000
C3383       C  0.91067083  0.83633890  0.92715792     0.62400
H3384       H  0.43503168  0.80639566  0.99942420     0.13100
H3385       H  0.84284122  0.72762549  0.89021495     0.13100
C3386       C  0.86137978  0.69771661  0.47836164     0.62600
F3387       F  0.43613457  0.85610853  0.96770615    -0.22600
F3388       F  0.88510735  0.84165274  0.92321389    -0.19900
F3389       F  0.93219847  0.85073154  0.87908111    -0.19600
F3390       F  0.82853155  0.68495121  0.48286001    -0.19600
F3391       F  0.86879085  0.68987306  0.52962944    -0.20000
F3392       F  0.87006941  0.68312583  0.43658111    -0.22600
C3393       C  0.92078445  0.79376943  0.67972819    -0.05500
C3394       C  0.89085905  0.77089627  0.70913800     0.00500
C3395       C  0.87622259  0.73779139  0.69543864    -0.08100
C3396       C  0.88980641  0.72993729  0.64820647    -0.05500
C3397       C  0.91874489  0.75318322  0.61697797     0.00400
C3398       C  0.93514804  0.78542912  0.63408021    -0.08000
C3399       C  0.46259354  0.80991303  0.60401063     0.62400
H3400       H  0.93244551  0.81888634  0.69070788     0.13100
H3401       H  0.87777637  0.70519843  0.63574898     0.13100
C3402       C  0.84663698  0.70976414  0.72953634     0.62600
F3403       F  0.45878387  0.83585111  0.58497755    -0.22600
F3404       F  0.47269918  0.79917498  0.55801890    -0.19900
F3405       F  0.48631151  0.82113277  0.63982985    -0.19600
F3406       F  0.85129358  0.68328653  0.73874462    -0.19600
F3407       F  0.82056789  0.70040702  0.69951304    -0.20000
F3408       F  0.83991017  0.71775750  0.78210965    -0.22600
C3409       C  0.99949633  0.69986587  0.84000267    -0.05500
C3410       C  0.96880575  0.68659656  0.82167776     0.00500
C3411       C  0.95888021  0.70947251  0.80365076    -0.08100
C3412       C  0.98126830  0.74342053  0.79773688    -0.05500
C3413       C  0.01049882  0.75601543  0.82020935     0.00400
C3414       C  0.02021359  0.73376172  0.83985866    -0.08000
C3415       C  0.05126319  0.74459421  0.86566172     0.62400
H3416       H  0.00709690  0.68379700  0.85838576     0.13100
H3417       H  0.97357729  0.76060664  0.78477556     0.13100
C3418       C  0.92455239  0.70060607  0.79642794     0.62600
F3419       F  0.04444422  0.73485302  0.92313357    -0.22600
F3420       F  0.57545287  0.76545629  0.89262812    -0.19900
F3421       F  0.06726085  0.72990697  0.84072261    -0.19600
F3422       F  0.91782964  0.72365385  0.81833830    -0.19600
F3423       F  0.90234738  0.67076746  0.82491302    -0.20000
F3424       F  0.92070257  0.70052073  0.73947316    -0.22600
C3425       C  0.70240722  0.93785234  0.61405675    -0.05500
C3426       C  0.69108054  0.96047869  0.61516075     0.00500
C3427       C  0.71316628  0.99320458  0.59057634    -0.08100
C3428       C  0.74598653  0.00248328  0.57760971    -0.05500
C3429       C  0.75719530  0.98012728  0.58310829     0.00400
C3430       C  0.73391345  0.94649531  0.59480413    -0.08000
C3431       C  0.74028967  0.91828321  0.58594002     0.62400
H3432       H  0.68558647  0.91191702  0.62446105     0.13100
H3433       H  0.76318586  0.02754550  0.56296268     0.13100
C3434       C  0.70317587  0.01836559  0.57582155     0.62600
F3435       F  0.71868309  0.89727257  0.55191848    -0.22600
F3436       F  0.73583847  0.90101141  0.63741217    -0.19900
F3437       F  0.77070766  0.92831451  0.56001718    -0.19600
F3438       F  0.69532710  0.02896048  0.62436922    -0.19600
F3439       F  0.67750138  0.00509649  0.54430834    -0.20000
F3440       F  0.72769248  0.04586991  0.54403580    -0.22600
C3441       C  0.56722254  0.89178982  0.51401037    -0.05500
C3442       C  0.59359492  0.88923771  0.52843001     0.00500
C3443       C  0.60513259  0.87037301  0.00029864    -0.08100
C3444       C  0.58904916  0.85426967  0.95497351    -0.05500
C3445       C  0.56029199  0.85264673  0.94390748     0.00400
C3446       C  0.04824170  0.88464852  0.92558276    -0.08000
C3447       C  0.01590380  0.88291297  0.92965742     0.62400
H3448       H  0.06570354  0.91432173  0.48379534     0.13100
H3449       H  0.59615966  0.83869915  0.93317655     0.13100
C3450       C  0.63231568  0.86527673  0.01681238     0.62600
F3451       F  0.00610318  0.87072290  0.48030757    -0.22600
F3452       F  0.99567607  0.86196024  0.89405392    -0.19900
F3453       F  0.02033521  0.91390101  0.91636115    -0.19600
F3454       F  0.63118301  0.86131064  0.07492573    -0.19600
F3455       F  0.66135805  0.89178439  0.99453146    -0.20000
F3456       F  0.63050231  0.83743949  0.99613688    -0.22600
C3457       C  0.55620496  0.86211571  0.74674906    -0.05500
C3458       C  0.58759707  0.86873538  0.72865863     0.00500
C3459       C  0.59894619  0.85005227  0.75814244    -0.08100
C3460       C  0.58083366  0.82980208  0.80786048    -0.05500
C3461       C  0.55059512  0.82492222  0.82701564     0.00400
C3462       C  0.04160125  0.85662584  0.74743945    -0.08000
C3463       C  0.01270290  0.85990261  0.76558526     0.62400
H3464       H  0.54624477  0.87498523  0.72485261     0.13100
H3465       H  0.59062926  0.81797538  0.83313519     0.13100
C3466       C  0.63044824  0.85158942  0.74096645     0.62600
F3467       F  0.02242964  0.88848511  0.79170962    -0.22600
F3468       F  0.98976019  0.83325292  0.80122849    -0.19900
F3469       F  0.99860570  0.86193970  0.71836560    -0.19600
F3470       F  0.65386873  0.87650903  0.76687643    -0.19600
F3471       F  0.63809587  0.85652936  0.68287796    -0.20000
F3472       F  0.62932276  0.82258204  0.75870460    -0.22600
C3473       C  0.48221979  0.73555367  0.63445536    -0.05500
C3474       C  0.45422850  0.71222064  0.61416694     0.00500
C3475       C  0.44551777  0.67880870  0.62202976    -0.08100
C3476       C  0.46660165  0.67029140  0.64543648    -0.05500
C3477       C  0.49676663  0.69362958  0.66117606     0.00400
C3478       C  0.50416963  0.72736434  0.65642312    -0.08000
C3479       C  0.53561951  0.75557232  0.67050321     0.62400
H3480       H  0.48836246  0.76095741  0.62718846     0.13100
H3481       H  0.46039214  0.64502267  0.64549092     0.13100
C3482       C  0.91674863  0.65799696  0.60346895     0.62600
F3483       F  0.54449581  0.78828968  0.15083569    -0.22600
F3484       F  0.56112099  0.75577809  0.63940915    -0.19900
F3485       F  0.53774422  0.75277153  0.72775197    -0.19600
F3486       F  0.91091931  0.62643726  0.61260202    -0.19600
F3487       F  0.91531374  0.66295112  0.54648827    -0.20000
F3488       F  0.89267577  0.66052503  0.63411445    -0.22600
C3489       C  0.74250782  0.77936423  0.80988536    -0.05500
C3490       C  0.72346990  0.74589180  0.80260795     0.00500
C3491       C  0.73910674  0.72973588  0.77920124    -0.08100
C3492       C  0.77281973  0.74592722  0.77144921    -0.05500
C3493       C  0.79252342  0.77828231  0.78606300     0.00400
C3494       C  0.77622826  0.79438852  0.80987410    -0.08000
C3495       C  0.79238678  0.82530555  0.84094166     0.62400
H3496       H  0.73013034  0.79145525  0.82766419     0.13100
H3497       H  0.78336344  0.73122002  0.75911726     0.13100
C3498       C  0.72104105  0.69354445  0.77114466     0.62600
F3499       F  0.77026498  0.82892593  0.87608283    -0.22600
F3500       F  0.80797634  0.85278966  0.80293475    -0.19900
F3501       F  0.81377704  0.82418249  0.87496299    -0.19600
F3502       F  0.68941163  0.68322017  0.76517637    -0.19600
F3503       F  0.72259562  0.67574015  0.81736169    -0.20000
F3504       F  0.73433594  0.68732001  0.72286642    -0.22600
C3505       C  0.60245863  0.66934778  0.95999994    -0.05500
C3506       C  0.62340614  0.70208316  0.93929141     0.00500
C3507       C  0.62070231  0.72709936  0.96589033    -0.08100
C3508       C  0.60005272  0.71872071  0.01649293    -0.05500
C3509       C  0.58071336  0.68534080  0.53830311     0.00400
C3510       C  0.58189507  0.66000093  0.51004216    -0.08000
C3511       C  0.56004019  0.62396830  0.52892499     0.62400
H3512       H  0.60536000  0.65045613  0.94114227     0.13100
H3513       H  0.59930008  0.73785020  0.03920390     0.13100
C3514       C  0.64142536  0.76280360  0.94303232     0.62600
F3515       F  0.52996207  0.61796618  0.55013412    -0.22600
F3516       F  0.57339964  0.61428785  0.56942699    -0.19900
F3517       F  0.55612094  0.60514785  0.48383652    -0.19600
F3518       F  0.63875057  0.76626673  0.88605681    -0.19600
F3519       F  0.67309555  0.77352620  0.95009052    -0.20000
F3520       F  0.63222879  0.78264076  0.97057847    -0.22600
C3521       C  0.59884966  0.67045911  0.76125136    -0.05500
C3522       C  0.59844215  0.69640211  0.73077679     0.00500
C3523       C  0.62356848  0.72887870  0.73453277    -0.08100
C3524       C  0.64587741  0.73451697  0.77396531    -0.05500
C3525       C  0.64472893  0.70860560  0.80758027     0.00400
C3526       C  0.62195070  0.67582118  0.79837025    -0.08000
C3527       C  0.62139832  0.64549900  0.82447594     0.62400
H3528       H  0.58077460  0.64548872  0.75607368     0.13100
H3529       H  0.66400498  0.75930628  0.77979078     0.13100
C3530       C  0.62726085  0.75731129  0.69613609     0.62600
F3531       F  0.59188622  0.62513862  0.85514066    -0.22600
F3532       F  0.64520814  0.65275302  0.85913835    -0.19900
F3533       F  0.62561370  0.62840919  0.78198489    -0.19600
F3534       F  0.60340965  0.76425824  0.71293095    -0.19600
F3535       F  0.65660786  0.78526224  0.69791462    -0.20000
F3536       F  0.62514440  0.74937419  0.64069014    -0.22600
C3537       C  0.69540386  0.43723121  0.82546960    -0.05500
C3538       C  0.72808123  0.45173375  0.80615767     0.00500
C3539       C  0.74296680  0.48309223  0.77651790    -0.08100
C3540       C  0.72607155  0.49999680  0.77148280    -0.05500
C3541       C  0.69372696  0.48690613  0.79371393     0.00400
C3542       C  0.67797849  0.45419853  0.82188811    -0.08000
C3543       C  0.64392623  0.43692788  0.85196969     0.62400
H3544       H  0.68679470  0.91365733  0.84885483     0.13100
H3545       H  0.74009424  0.52534131  0.75426538     0.13100
C3546       C  0.77814795  0.50184301  0.75583516     0.62600
F3547       F  0.63935036  0.90900081  0.88266422    -0.22600
F3548       F  0.62208993  0.42582322  0.81284439    -0.19900
F3549       F  0.63891106  0.45742152  0.88597502    -0.19600
F3550       F  0.78159053  0.51468725  0.70097124    -0.19600
F3551       F  0.79199388  0.48229627  0.75664096    -0.20000
F3552       F  0.79374695  0.52715727  0.78925429    -0.22600
C3553       C  0.75678161  0.76642072  0.63954916    -0.05500
C3554       C  0.79060371  0.78306639  0.62734886     0.00500
C3555       C  0.80376156  0.76466424  0.60076399    -0.08100
C3556       C  0.78287635  0.73122307  0.59180145    -0.05500
C3557       C  0.74932890  0.71703515  0.59681992     0.00400
C3558       C  0.73634629  0.73595180  0.61981157    -0.08000
C3559       C  0.70184303  0.72792141  0.61888919     0.62400
H3560       H  0.74541037  0.77964823  0.65628300     0.13100
H3561       H  0.79261827  0.71715912  0.57226334     0.12700
C3562       C  0.83872350  0.77975514  0.57609268     0.62600
F3563       F  0.70117895  0.75406085  0.59124759    -0.22600
F3564       F  0.68749264  0.72275243  0.67379024    -0.19900
F3565       F  0.68406690  0.70084762  0.59122381    -0.19600
F3566       F  0.85836998  0.78789235  0.61857610    -0.19600
F3567       F  0.84757911  0.80711573  0.53922563    -0.20000
F3568       F  0.84406023  0.75818386  0.54564872    -0.22600
C3569       C  0.80976535  0.90954452  0.92343619    -0.05500
C3570       C  0.77709439  0.89871894  0.92257757     0.00500
C3571       C  0.75448244  0.87376204  0.96364863    -0.08100
C3572       C  0.76768020  0.86413235  0.50842803    -0.05500
C3573       C  0.80045376  0.87880595  0.51434558     0.00400
C3574       C  0.82308693  0.90182327  0.47060136    -0.08000
C3575       C  0.85869833  0.91486401  0.47044684     0.62400
H3576       H  0.82685219  0.92872877  0.89179689     0.13100
H3577       H  0.75071944  0.84494539  0.54027268     0.13100
C3578       C  0.71894174  0.85689558  0.95775436     0.62600
F3579       F  0.87161797  0.92227337  0.90989322    -0.22600
F3580       F  0.86462069  0.88914473  0.47891872    -0.19900
F3581       F  0.86978466  0.93534887  0.51291286    -0.19600
F3582       F  0.71364430  0.84095389  0.90901516    -0.19600
F3583       F  0.70844676  0.87935311  0.95415646    -0.20000
F3584       F  0.70086113  0.83389325  0.00307422    -0.22600
C3585       C  0.79984955  0.92363768  0.77847711    -0.05500
C3586       C  0.76693826  0.90828392  0.79582741     0.00500
C3587       C  0.74637439  0.88031264  0.76877581    -0.08100
C3588       C  0.75957447  0.86917852  0.72566366    -0.05500
C3589       C  0.79275722  0.88367388  0.71003331     0.00400
C3590       C  0.81328263  0.91117382  0.73874815    -0.08000
C3591       C  0.84919045  0.92633426  0.73445709     0.62400
H3592       H  0.81115782  0.44388145  0.79614458     0.13100
H3593       H  0.74353979  0.84813202  0.70466482     0.13100
C3594       C  0.71053985  0.86124126  0.78213857     0.62600
F3595       F  0.85959766  0.44762492  0.76449150    -0.22600
F3596       F  0.86331294  0.95470171  0.69823907    -0.19900
F3597       F  0.85867189  0.90489835  0.71626104    -0.19600
F3598       F  0.69957600  0.87238274  0.82635710    -0.19600
F3599       F  0.70060576  0.82851795  0.79607136    -0.20000
F3600       F  0.69732100  0.86377671  0.73414106    -0.22600
loop_ 
_geom_bond_atom_site_label_1 
_geom_bond_atom_site_label_2 
_geom_bond_distance 
_geom_bond_site_symmetry_2 
_ccdc_geom_bond_type 
C1            C2   1.547       .  S
C1            C7   1.524       .  S
C1            C5   1.558       .  S
C1          C404   1.573       .  S
C2            H9   1.075       .  S
C2            C3   1.377       .  D
C3            C4   1.552       .  S
C3           C71   1.499       .  S
C4            C8   1.548       .  S
C4            C6   1.556       .  S
C4           H10   1.105       .  S
C5           H11   1.078       .  S
C5            C6   1.377       .  D
C6          C439   1.533       .  S
C7           H12   1.088       .  S
C7            C8   1.356       .  D
C8          C423   1.491       .  S
N13          C17   1.365       .  A
N13          C14   1.372       .  A
N13         C436   1.456       .  S
C14         C915   1.382       .  A
C14        C1288   1.480       .  S
C15         C914   1.382       .  A
C15         C916   1.357       .  A
C15          H18   1.083       .  S
C16          C17   1.376       .  A
C16         C915   1.353       .  A
C16          H19   1.077       .  S
C17         C420   1.472       .  S
N20          C24   1.367       .  A
N20          C21   1.372       .  A
N20         C375   1.455       .  S
C21          C22   1.377       .  A
C21         C340   1.489       .  S
C22          C23   1.354       .  A
C22          H25   1.077       .  S
C23          C24   1.374       .  A
C23          H26   1.082       .  S
C24         C356   1.471       .  S
C27          C28   1.562       .  S
C27          C33   1.532       .  S
C27          C31   1.550       .  S
C27         C327   1.566       .  S
C28          H35   1.083   1_455  S
C28          C29   1.371       .  D
C29          C30   1.538       .  S
C29          C78   1.490       .  S
C30          C34   1.543       .  S
C30          C32   1.544       .  S
C30          H36   1.110       .  S
C31          H37   1.077       .  S
C31          C32   1.376       .  D
C32         C372   1.506       .  S
C33          H38   1.088       .  S
C33          C34   1.354       .  D
C34         C359   1.488       .  S
C39          C40   1.549       .  S
C39          C45   1.521       .  S
C39          C43   1.547       .  S
C39         C276   1.545       .  S
C40          H47   1.075       .  S
C40          C41   1.378       .  D
C41          C42   1.548       .  S
C41          C61   1.485       .  S
C42          C46   1.541       .  S
C42          C44   1.539       .  S
C42          H48   1.106       .  S
C43          H49   1.075       .  S
C43          C44   1.366       .  D
C44         C308   1.518       .  S
C45          H50   1.083       .  S
C45          C46   1.348       .  D
C46         C292   1.479   1_554  S
N51          C55   1.362       .  A
N51          C52   1.362       .  A
N51        C2111   1.446       .  S
C52          C53   1.374       .  A
C52         C263   1.475       .  S
C53          C54   1.358       .  A
C53          H56   1.080       .  S
C54          C55   1.383       .  A
C54          H57   1.082       .  S
C55        C2095   1.470       .  S
N58          C62   1.350       .  A
N58          N59   1.321       .  A
N58        Cu966   2.092       .  S
N59          C60   1.339       .  A
N59       Cu1865   2.059   1_455  S
C60          C61   1.382       .  A
C60        H1863   1.080       .  S
C61          C62   1.391       .  A
C62          H64   1.082       .  S
H63        C1860   1.080       .  S
Cu65         N68   2.071       .  S
Cu65       N1859   2.072       .  S
Cu66         N76   2.092       .  S
Cu66        N958   2.090   1_545  S
Cu67        N969   2.094   1_545  S
Cu67       N1875   2.096       .  S
N68          C72   1.348       .  A
N68          N69   1.320       .  A
N69          C70   1.345       .  A
N69        Cu967   2.100       .  S
C70          C71   1.391       .  A
C70          H73   1.076       .  S
C71          C72   1.389       .  A
C72          H74   1.081       .  S
N75          C79   1.348       .  A
N75          N76   1.325   1_655  A
N75       Cu1867   2.101       .  S
N76          C77   1.348       .  A
C77          C78   1.387       .  A
C77          H80   1.082       .  S
C78          C79   1.386   1_455  A
C79          H81   1.077       .  S
C82          C83   1.542       .  S
C82          C88   1.545       .  S
C82          C86   1.540       .  S
C82         C343   1.558       .  S
C83          H90   1.083       .  S
C83          C84   1.366       .  D
C84          C85   1.549       .  S
C84         C244   1.500       .  S
C85          C89   1.544       .  S
C85          C87   1.548       .  S
C85          H91   1.110       .  S
C86          H92   1.087       .  S
C86          C87   1.366       .  D
C87         C231   1.499       .  S
C88          H93   1.080       .  S
C88          C89   1.373       .  D
C89         C142   1.491       .  S
N94          C98   1.368       .  A
N94        C1895   1.367       .  A
N94         C247   1.449       .  S
C95        N1894   1.364       .  A
C95          C96   1.380       .  A
C95         C324   1.487       .  S
C96        C2347   1.363   1_554  A
C96          H99   1.082   1_554  S
C97        C2346   1.361       .  A
C97         C548   1.376       .  A
C97         H100   1.078       .  S
C98         C547   1.376   1_554  A
C98         C678   1.483   1_554  S
C101        C102   1.543       .  S
C101        C107   1.544       .  S
C101        C105   1.548       .  S
C101        C391   1.565   1_545  S
C102        H109   1.064   1_545  S
C102        C103   1.365       .  D
C103        C104   1.549       .  S
C103        C159   1.501       .  S
C104        C108   1.551       .  S
C104        C106   1.546       .  S
C104        H110   1.109       .  S
C105        H111   1.082       .  S
C105        C106   1.372       .  D
C106        C212   1.509       .  S
C107        H112   1.080       .  S
C107        C108   1.362       .  D
C108        C196   1.509       .  S
N113        C117   1.374   1_554  A
N113        C114   1.376       .  A
N113        C215   1.444       .  S
C114        C115   1.375   1_554  A
C114        C407   1.507       .  S
C115        C566   1.369       .  A
C115        H118   1.082       .  S
C116        C565   1.370       .  A
C116        C567   1.378       .  A
C116        H119   1.081       .  S
C117        C566   1.377       .  A
C117        C649   1.504       .  S
C120        C121   1.558       .  S
C120        C126   1.548       .  S
C120        C124   1.530       .  S
C120        C260   1.555       .  S
C121        H128   1.082       .  S
C121        C122   1.369       .  D
C122        C123   1.541       .  S
C122        C152   1.491       .  S
C123        C127   1.549       .  S
C123        C125   1.535       .  S
C123       H1029   1.103       .  S
C124        H130   1.079       .  S
C124        C125   1.356       .  D
C125        C180   1.472       .  S
C126        H131   1.086       .  S
C126        C127   1.375       .  D
C127        C164   1.524       .  S
H129       C1023   1.104       .  S
N132        C136   1.362       .  A
N132        C133   1.371       .  A
N132        C167   1.454       .  S
C133        C134   1.388       .  A
C133        C279   1.489       .  S
C134        C135   1.351       .  A
C134        H137   1.080       .  S
C135        C136   1.372       .  A
C135        H138   1.082       .  S
C136       C1083   1.462       .  S
N139        C143   1.351       .  A
N139        N140   1.321       .  A
N139      Cu1947   2.095       .  S
N140        C141   1.345       .  A
N140       Cu146   2.079       .  S
C141        C142   1.386       .  A
C141        H144   1.079       .  S
C142        C143   1.389       .  A
C143        H145   1.080       .  S
Cu146       N149   2.079       .  S
Cu147      N1939   2.104   1_455  S
Cu147      N1057   2.106       .  S
Cu148       N156   2.096       .  S
Cu148      N1950   2.096   1_455  S
N149        C153   1.343       .  A
N149       N1050   1.322       .  A
N150        C151   1.348       .  A
N150       N1049   1.322       .  A
N150      Cu1948   2.084       .  S
C151        C152   1.389       .  A
C151        H154   1.082       .  S
C152       C1053   1.387       .  A
C153       C1052   1.385       .  A
C153        H155   1.080       .  S
N156        C160   1.353       .  A
N156        N157   1.324   1_545  A
N157        C158   1.346       .  A
N157      Cu1047   2.110       .  S
C158        C159   1.395   1_565  A
C158       H1061   1.081       .  S
C159        C160   1.388       .  A
C160        H162   1.081       .  S
H161       C1058   1.081       .  S
C163        C164   1.413       .  A
C163       C1068   1.416       .  A
C163        H170   1.084       .  S
C164        C165   1.429       .  A
C165        C172   1.516       .  S
C165        C616   1.412       .  A
C166        C615   1.413   1_554  A
C166       C1067   1.400       .  A
C166        H171   1.084   1_545  S
C167       C1066   1.400       .  A
C167        C618   1.422       .  A
C168        C169   1.512       .  S
C168       C1063   1.416       .  A
C168        C617   1.422       .  A
C169        F173   1.381       .  S
C169        F175   1.383       .  S
C169        F624   1.375       .  S
C172        F176   1.380       .  S
C172        F177   1.379       .  S
C172        F628   1.383       .  S
F174        C619   1.374       .  S
F178        C622   1.382       .  S
C179        C180   1.401       .  A
C179        C184   1.401       .  A
C179        H186   1.083       .  S
C180        C181   1.411       .  A
C181        C188   1.515       .  S
C181        C182   1.401       .  A
C182        C183   1.401       .  A
C182       H1087   1.078       .  S
C183        C184   1.415       .  A
C183       C1036   1.463       .  S
C184        C185   1.516       .  S
C185        F189   1.384       .  S
C185        F190   1.382       .  S
C185       F1091   1.379       .  S
H187       C1082   1.076       .  S
C188        F192   1.374       .  S
C188        F193   1.383       .  S
C188       F1094   1.385       .  S
F191       C1085   1.379       .  S
F194       C1088   1.385       .  S
C195        C196   1.400       .  A
C195        C200   1.408       .  A
C195        H202   1.083       .  S
C196        C197   1.431       .  A
C197        C204   1.523       .  S
C197        C198   1.417       .  A
C198        C199   1.404       .  A
C198        H203   1.083       .  S
C199        C200   1.423       .  A
C199        C567   1.498       .  S
C200        C651   1.515       .  S
C201        C650   1.516       .  S
C201        F205   1.385       .  S
C201        F206   1.380       .  S
C201        F207   1.377   1_556  S
C204        F208   1.377       .  S
C204        F209   1.379       .  S
C204        F210   1.385       .  S
C211        C212   1.406       .  A
C211        C216   1.406       .  A
C211        H218   1.083       .  S
C212        C213   1.428       .  A
C213        C220   1.516       .  S
C213        C214   1.412       .  A
C214        C215   1.399       .  A
C214        H219   1.084       .  S
C215        C216   1.418       .  A
C216        C217   1.514       .  S
C217        F221   1.384       .  S
C217        F222   1.374       .  S
C217        F223   1.379       .  S
C220        F224   1.380       .  S
C220        F225   1.378       .  S
C220        F226   1.385       .  S
C227        C228   1.402       .  A
C227        C232   1.414       .  A
C227       H2034   1.081       .  S
C228        C229   1.420       .  A
C228        C548   1.487       .  S
C229        C686   1.516       .  S
C229        C230   1.406       .  A
C230        C231   1.402       .  A
C230        H235   1.084       .  S
C231        C232   1.421       .  A
C232        C233   1.513       .  S
C233        F238   1.383       .  S
C233        F239   1.380       .  S
C233       F2037   1.385       .  S
H234       C2027   1.077       .  S
C236        C679   1.517       .  S
C236        F240   1.384   1_556  S
C236        F241   1.382   1_556  S
C236        F242   1.383       .  S
F237       C2033   1.385       .  S
C243        C244   1.404       .  A
C243        C248   1.414       .  A
C243        H250   1.085       .  S
C244        C245   1.422       .  A
C245        C252   1.518       .  S
C245        C246   1.410       .  A
C246        C247   1.401       .  A
C246        H251   1.082       .  S
C247        C248   1.423       .  A
C248       C2049   1.515       .  S
C249       C2048   1.520       .  S
C249        F253   1.380       .  S
C249        F254   1.383       .  S
C249        F255   1.380       .  S
C252        F256   1.382       .  S
C252        F257   1.382       .  S
C252        F258   1.383       .  S
C259        C260   1.414       .  A
C259        C264   1.402       .  A
C259        H266   1.077       .  S
C260        C261   1.443       .  A
C261        C268   1.526       .  S
C261        C262   1.411       .  A
C262        C263   1.394       .  A
C262        H267   1.082       .  S
C263        C264   1.412       .  A
C264        C265   1.519       .  S
C265        F269   1.383       .  S
C265        F271   1.383       .  S
C265       F2070   1.381       .  S
C268        F272   1.385       .  S
C268        F273   1.380       .  S
C268        F274   1.381       .  S
F270       C2065   1.380       .  S
C275        C276   1.416       .  A
C275        C280   1.390       .  A
C275        H282   1.084       .  S
C276        C277   1.429       .  A
C277        C284   1.518       .  S
C277        C278   1.418       .  A
C278        C279   1.404       .  A
C278        H283   1.079       .  S
C279        C280   1.414       .  A
C280        C281   1.524       .  S
C281        F285   1.381       .  S
C281        F286   1.382       .  S
C281        F287   1.384       .  S
C284        F288   1.379       .  S
C284        F289   1.383       .  S
C284        F290   1.384       .  S
C291        C292   1.400       .  A
C291       C2546   1.400       .  A
C291       H2098   1.083   1_556  S
C292        C743   1.425       .  A
C293        C300   1.524       .  S
C293        C294   1.402       .  A
C293        C742   1.427       .  A
C294        C295   1.397       .  A
C294        H299   1.083       .  S
C295       C2096   1.411       .  A
C295       C1855   1.467       .  S
C296        C297   1.514       .  S
C296       C2541   1.405       .  A
C296       C2095   1.412       .  A
C297        F302   1.380       .  S
C297        F303   1.380       .  S
C297        F751   1.385       .  S
H298       C2091   1.083       .  S
C300        F304   1.382       .  S
C300        F305   1.382       .  S
C300        F306   1.385       .  S
F301        C747   1.384       .  S
C307        C308   1.412       .  A
C307       C2112   1.414       .  A
C307        H314   1.081       .  S
C308        C309   1.427       .  A
C309        C316   1.513       .  S
C309        C310   1.409       .  A
C310        C311   1.397       .  A
C310        H315   1.078       .  S
C311       N1851   1.447       .  S
C311       C2112   1.416       .  A
C312        C313   1.516       .  S
C312       C2107   1.414       .  A
C312       C2111   1.416       .  A
C313        F317   1.381       .  S
C313        F318   1.381       .  S
C313        F319   1.383       .  S
C316        F320   1.377       .  S
C316        F321   1.381       .  S
C316        F322   1.381       .  S
C323        C324   1.394       .  A
C323        C328   1.418   1_655  A
C323        H330   1.083       .  S
C324        C325   1.411       .  A
C325       C2132   1.522       .  S
C325        C326   1.409       .  A
C326        C327   1.416   1_655  A
C326        H331   1.073       .  S
C327        C328   1.444       .  A
C328        C329   1.522       .  S
C329        F334   1.380       .  S
C329        F335   1.378       .  S
C329        F783   1.385       .  S
C332       C2125   1.525       .  S
C332        F336   1.376       .  S
C332        F337   1.378       .  S
C332        F338   1.380       .  S
F333        C779   1.385       .  S
C339        C340   1.409       .  A
C339        C344   1.418       .  A
C339        H346   1.084       .  S
C340        C341   1.413       .  A
C341        C348   1.513       .  S
C341        C342   1.408       .  A
C342        C343   1.418       .  A
C342        H347   1.080       .  S
C343        C344   1.434       .  A
C344        C345   1.528       .  S
C345        F349   1.386       .  S
C345        F350   1.379       .  S
C345        F351   1.380       .  S
C348        F352   1.377       .  S
C348        F353   1.383       .  S
C348        F354   1.382       .  S
C355        C356   1.397       .  A
C355        C810   1.398       .  A
C355        H362   1.077       .  S
C356        C357   1.417       .  A
C357        C364   1.516       .  S
C357        C358   1.407       .  A
C358        C809   1.404       .  A
C358        H363   1.083       .  S
C359        C360   1.417   1_554  A
C359        C808   1.405   1_554  A
C360        C361   1.510   1_556  S
C360        C805   1.401       .  A
C361        F365   1.382       .  S
C361        F366   1.379       .  S
C361        F367   1.385   1_554  S
C364        F368   1.381       .  S
C364        F369   1.379       .  S
C364        F370   1.384       .  S
C371        C372   1.401       .  A
C371        C376   1.411       .  A
C371        H378   1.084       .  S
C372        C373   1.419       .  A
C373        C380   1.509       .  S
C373        C374   1.417       .  A
C374        C375   1.403       .  A
C374        H379   1.083       .  S
C375        C376   1.428       .  A
C376        C377   1.517       .  S
C377        F381   1.383       .  S
C377        F382   1.380       .  S
C377        F383   1.381       .  S
C380        F384   1.375       .  S
C380        F385   1.384       .  S
C380        F386   1.384       .  S
C387        C388   1.396       .  A
C387        C392   1.417       .  A
C387       H1294   1.078       .  S
C388        C389   1.411       .  A
C388        C914   1.483       .  S
C389        C396   1.513   1_565  S
C389        C390   1.402   1_565  A
C390        C391   1.413   1_545  A
C390        H395   1.085       .  S
C391        C392   1.440       .  A
C392        C393   1.513       .  S
C393        F398   1.381       .  S
C393        F399   1.382       .  S
C393       F1297   1.385       .  S
H394       C1287   1.078       .  S
C396        F400   1.373       .  S
C396        F401   1.382   1_545  S
C396        F402   1.383       .  S
F397       C1293   1.382       .  S
C403        C404   1.419       .  A
C403        C408   1.414       .  A
C403        H410   1.080       .  S
C404        C405   1.442       .  A
C405        C412   1.525       .  S
C405        C406   1.425       .  A
C406        C407   1.404       .  A
C406        H411   1.083       .  S
C407        C408   1.421       .  A
C408        C409   1.518       .  S
C409        F413   1.385       .  S
C409        F414   1.379       .  S
C409        F415   1.373       .  S
C412        F416   1.378       .  S
C412        F417   1.382       .  S
C412        F418   1.380       .  S
C419        C420   1.405       .  A
C419        C874   1.411       .  A
C419        H426   1.083       .  S
C420        C421   1.413       .  A
C421        C428   1.517       .  S
C421        C872   1.399       .  A
C422        C423   1.402       .  A
C422        C871   1.399   1_554  A
C422        H427   1.084       .  S
C423        C424   1.418   1_554  A
C424        C425   1.513       .  S
C424        C869   1.414       .  A
C425        F430   1.384       .  S
C425        F431   1.377   1_556  S
C425        F879   1.385       .  S
C428        F432   1.375       .  S
C428        F433   1.381       .  S
C428        F434   1.385       .  S
F429        C875   1.384       .  S
C435        C436   1.395       .  A
C435        C440   1.413       .  A
C435       H1342   1.081       .  S
C436        C437   1.421       .  A
C437        C444   1.508       .  S
C437        C438   1.418       .  A
C438        C439   1.410       .  A
C438        H443   1.085       .  S
C439        C440   1.432       .  A
C440        C441   1.504       .  S
C441        F446   1.375       .  S
C441        F447   1.375       .  S
C441       F1345   1.386       .  S
H442       C1335   1.082       .  S
C444        F448   1.380       .  S
C444        F449   1.383       .  S
C444        F450   1.376       .  S
F445       C1341   1.386       .  S
C451        C452   1.543       .  S
C451        C457   1.522       .  S
C451        C455   1.556       .  S
C451        C854   1.567       .  S
C452        H459   1.074       .  S
C452        C453   1.375       .  D
C453        C454   1.552       .  S
C453        C521   1.497       .  S
C454        C458   1.548       .  S
C454        C456   1.555       .  S
C454        H460   1.104       .  S
C455        H461   1.076       .  S
C455        C456   1.375       .  D
C456        C889   1.530       .  S
C457        H462   1.088       .  S
C457        C458   1.354       .  D
C458        C873   1.485       .  S
N463        C467   1.367       .  A
N463        C464   1.373       .  A
N463        C886   1.454       .  S
C464       C1365   1.380       .  A
C464       C1738   1.483       .  S
C465       C1364   1.382       .  A
C465       C1366   1.356       .  A
C465        H468   1.083       .  S
C466       C1365   1.354       .  A
C466        C467   1.375       .  A
C466        H469   1.075       .  S
C467        C870   1.479       .  S
N470        C474   1.365       .  A
N470        C471   1.369       .  A
N470        C825   1.451       .  S
C471        C472   1.376       .  A
C471        C790   1.483       .  S
C472        C473   1.354       .  A
C472        H475   1.077       .  S
C473        C474   1.374       .  A
C473        H476   1.082       .  S
C474        C806   1.470       .  S
C477        C478   1.566       .  S
C477        C483   1.531       .  S
C477        C481   1.550       .  S
C477        C777   1.569   1_455  S
C478        H485   1.083   1_455  S
C478        C479   1.377       .  D
C479        C480   1.537       .  S
C479        C528   1.496       .  S
C480        C484   1.543       .  S
C480        C482   1.543       .  S
C480        H486   1.110       .  S
C481        H487   1.078       .  S
C481        C482   1.377       .  D
C482        C822   1.507       .  S
C483        H488   1.088       .  S
C483        C484   1.352       .  D
C484        C809   1.486       .  S
C489        C490   1.547       .  S
C489        C495   1.522       .  S
C489        C493   1.543       .  S
C489        C726   1.547       .  S
C490        H497   1.076       .  S
C490        C491   1.377       .  D
C491        C492   1.549       .  S
C491        C511   1.483       .  S
C492        C496   1.544       .  S
C492        C494   1.541       .  S
C492        H498   1.106       .  S
C493        H499   1.073       .  S
C493        C494   1.364       .  D
C494        C758   1.516       .  S
C495        H500   1.082       .  S
C495        C496   1.351       .  D
C496        C742   1.485       .  S
N501        C505   1.362       .  A
N501        C502   1.362       .  A
N501       C2561   1.446       .  S
C502        C503   1.375       .  A
C502        C713   1.476       .  S
C503        C504   1.358       .  A
C503        H506   1.079       .  S
C504        C505   1.383       .  A
C504        H507   1.083   1_556  S
C505       C2545   1.470       .  S
N508        C512   1.349       .  A
N508        N509   1.322       .  A
N508      Cu1416   2.091       .  S
N509        C510   1.340       .  A
N509      Cu2315   2.060   1_455  S
C510        C511   1.382       .  A
C510       H2313   1.080       .  S
C511        C512   1.390       .  A
C512        H514   1.082       .  S
H513       C2310   1.080       .  S
Cu515      N2309   2.067       .  S
Cu515       N518   2.066       .  S
Cu516      N1408   2.105   1_545  S
Cu516       N526   2.106       .  S
Cu517      N1419   2.102   1_545  S
Cu517      N2325   2.104       .  S
N518        C522   1.346       .  A
N518        N519   1.319       .  A
N519        C520   1.346       .  A
N519      Cu1417   2.096       .  S
C520        C521   1.391       .  A
C520        H523   1.075       .  S
C521        C522   1.389       .  A
C522        H524   1.082       .  S
N525        C529   1.348       .  A
N525        N526   1.324   1_655  A
N525      Cu2317   2.096       .  S
N526        C527   1.350       .  A
C527        C528   1.391       .  A
C527        H530   1.081       .  S
C528        C529   1.384   1_455  A
C529        H531   1.074       .  S
C532        C533   1.539       .  S
C532        C538   1.544       .  S
C532        C536   1.542       .  S
C532        C793   1.558       .  S
C533        H540   1.083       .  S
C533        C534   1.363       .  D
C534        C535   1.546       .  S
C534        C694   1.497       .  S
C535        C539   1.544       .  S
C535        C537   1.546       .  S
C535        H541   1.109       .  S
C536        H542   1.087       .  S
C536        C537   1.369       .  D
C537        C681   1.500       .  S
C538        H543   1.077       .  S
C538        C539   1.372       .  D
C539        C592   1.489       .  S
N544        C548   1.368       .  A
N544       C2345   1.367       .  A
N544        C697   1.445       .  S
C545       N2344   1.366       .  A
C545        C546   1.378       .  A
C545        C774   1.491       .  S
C546       C1897   1.362       .  A
C546        H549   1.082       .  S
C547       C1896   1.360   1_556  A
C547        H550   1.079       .  S
C551        C552   1.540       .  S
C551        C557   1.547       .  S
C551        C555   1.549       .  S
C551        C841   1.564   1_545  S
C552        H559   1.047   1_545  S
C552        C553   1.363       .  D
C553        C554   1.549       .  S
C553        C609   1.499       .  S
C554        C558   1.544       .  S
C554        C556   1.550       .  S
C554        H560   1.109       .  S
C555        H561   1.083       .  S
C555        C556   1.373       .  D
C556        C662   1.509       .  S
C557        H562   1.083       .  S
C557        C558   1.364       .  D
C558        C646   1.508       .  S
N563        C567   1.370       .  A
N563        C564   1.372       .  A
N563        C665   1.443       .  S
C564        C565   1.374       .  A
C564        C857   1.500       .  S
C565        H568   1.081       .  S
C566        H569   1.081       .  S
C570        C571   1.558       .  S
C570        C576   1.553       .  S
C570        C574   1.530       .  S
C570        C710   1.557       .  S
C571        H578   1.082       .  S
C571        C572   1.367       .  D
C572        C573   1.540       .  S
C572        C602   1.488       .  S
C573        C577   1.545       .  S
C573        C575   1.530       .  S
C573       H1479   1.103       .  S
C574        H580   1.077       .  S
C574        C575   1.355       .  D
C575        C630   1.466       .  S
C576        H581   1.086       .  S
C576        C577   1.377       .  D
C577        C614   1.524       .  S
H579       C1473   1.103       .  S
N582        C586   1.362       .  A
N582        C583   1.373       .  A
N582        C617   1.455       .  S
C583        C584   1.388       .  A
C583        C729   1.493       .  S
C584        C585   1.350       .  A
C584        H587   1.079       .  S
C585        C586   1.371       .  A
C585        H588   1.081       .  S
C586       C1533   1.463       .  S
N589        C593   1.350       .  A
N589        N590   1.322       .  A
N589      Cu2397   2.094       .  S
N590        C591   1.345       .  A
N590       Cu596   2.081       .  S
C591        C592   1.385       .  A
C591        H594   1.079       .  S
C592        C593   1.389       .  A
C593        H595   1.081       .  S
Cu596       N599   2.080       .  S
Cu597      N2389   2.093   1_455  S
Cu597      N1507   2.095       .  S
Cu598      N2400   2.085   1_455  S
Cu598       N606   2.085       .  S
N599        C603   1.344       .  A
N599       N1500   1.322       .  A
N600        C601   1.348       .  A
N600       N1499   1.322       .  A
N600      Cu2398   2.083       .  S
C601        C602   1.389       .  A
C601        H604   1.082       .  S
C602       C1503   1.385       .  A
C603       C1502   1.386       .  A
C603        H605   1.080       .  S
N606        C610   1.352       .  A
N606        N607   1.324   1_545  A
N607        C608   1.345       .  A
N607      Cu1497   2.113       .  S
C608        C609   1.396   1_565  A
C608       H1511   1.080       .  S
C609        C610   1.385       .  A
C610        H612   1.080       .  S
H611       C1508   1.081       .  S
C613        C614   1.412       .  A
C613       C1518   1.417   1_556  A
C613        H620   1.084       .  S
C614        C615   1.430       .  A
C615        C622   1.516       .  S
C616       C1517   1.399       .  A
C616        H621   1.083   1_545  S
C617       C1516   1.403       .  A
C618        C619   1.513       .  S
C618       C1513   1.417   1_554  A
C619        F623   1.380       .  S
C619        F625   1.382       .  S
C622        F626   1.378       .  S
C622        F627   1.380       .  S
C629        C630   1.401       .  A
C629        C634   1.401       .  A
C629        H636   1.083       .  S
C630        C631   1.409       .  A
C631        C638   1.518       .  S
C631        C632   1.401       .  A
C632        C633   1.404       .  A
C632       H1537   1.078       .  S
C633        C634   1.414       .  A
C633       C1486   1.462       .  S
C634        C635   1.516       .  S
C635        F639   1.384       .  S
C635        F640   1.382       .  S
C635       F1541   1.379       .  S
H637       C1532   1.076       .  S
C638        F642   1.376       .  S
C638        F643   1.384       .  S
C638       F1544   1.385       .  S
F641       C1535   1.378       .  S
F644       C1538   1.384       .  S
C645        C646   1.400       .  A
C645        C650   1.412       .  A
C645        H652   1.083       .  S
C646        C647   1.426       .  A
C647        C654   1.520       .  S
C647        C648   1.417       .  A
C648        C649   1.407       .  A
C648        H653   1.084       .  S
C649        C650   1.428       .  A
C651        F655   1.385       .  S
C651        F656   1.381       .  S
C651        F657   1.379       .  S
C654        F658   1.379       .  S
C654        F659   1.379       .  S
C654        F660   1.384       .  S
C661        C662   1.406       .  A
C661        C666   1.402       .  A
C661        H668   1.082       .  S
C662        C663   1.431       .  A
C663        C670   1.517       .  S
C663        C664   1.413       .  A
C664        C665   1.400       .  A
C664        H669   1.084       .  S
C665        C666   1.415       .  A
C666        C667   1.513       .  S
C667        F671   1.385       .  S
C667        F672   1.372       .  S
C667        F673   1.379       .  S
C670        F674   1.380       .  S
C670        F675   1.377       .  S
C670        F676   1.385       .  S
C677        C678   1.401       .  A
C677        C682   1.412       .  A
C677       H2484   1.080       .  S
C678        C679   1.420       .  A
C679        C680   1.406       .  A
C680        C681   1.403       .  A
C680        H685   1.085       .  S
C681        C682   1.422       .  A
C682        C683   1.513       .  S
C683       F2487   1.385       .  S
C683        F688   1.383       .  S
C683        F689   1.379       .  S
H684       C2477   1.076       .  S
C686        F690   1.384       .  S
C686        F691   1.382       .  S
C686        F692   1.383       .  S
F687       C2483   1.385       .  S
C693        C694   1.404       .  A
C693        C698   1.412       .  A
C693        H700   1.084       .  S
C694        C695   1.423       .  A
C695        C702   1.519       .  S
C695        C696   1.406       .  A
C696        C697   1.399       .  A
C696        H701   1.081       .  S
C697        C698   1.421       .  A
C698       C2499   1.514       .  S
C699       C2498   1.517       .  S
C699        F703   1.383       .  S
C699        F704   1.379       .  S
C699        F705   1.382       .  S
C702        F706   1.383       .  S
C702        F707   1.383       .  S
C702        F708   1.383       .  S
C709        C710   1.414       .  A
C709        C714   1.401       .  A
C709        H716   1.077       .  S
C710        C711   1.444       .  A
C711        C718   1.527       .  S
C711        C712   1.413       .  A
C712        C713   1.394       .  A
C712        H717   1.082       .  S
C713        C714   1.411       .  A
C714        C715   1.517       .  S
C715        F719   1.383       .  S
C715       F2520   1.381       .  S
C715        F721   1.383       .  S
C718        F722   1.385       .  S
C718        F723   1.380       .  S
C718        F724   1.381       .  S
F720       C2515   1.381       .  S
C725        C726   1.416       .  A
C725        C730   1.393       .  A
C725        H732   1.083       .  S
C726        C727   1.429       .  A
C727        C734   1.517       .  S
C727        C728   1.420       .  A
C728        C729   1.405       .  A
C728        H733   1.064       .  S
C729        C730   1.415       .  A
C730        C731   1.523       .  S
C731        F735   1.379       .  S
C731        F736   1.382       .  S
C731        F737   1.384       .  S
C734        F738   1.380       .  S
C734        F739   1.383       .  S
C734        F740   1.384       .  S
C741        C742   1.404       .  A
C741       C2096   1.402       .  A
C741       H2548   1.083       .  S
C743        C750   1.524       .  S
C743        C744   1.402       .  A
C744        C745   1.398       .  A
C744        H749   1.084       .  S
C745       C2546   1.413       .  A
C745       C2305   1.468       .  S
C746        C747   1.514       .  S
C746       C2091   1.406   1_556  A
C746       C2545   1.412       .  A
C747        F752   1.381       .  S
C747        F753   1.380       .  S
H748       C2541   1.083       .  S
C750        F754   1.381   1_556  S
C750        F755   1.381       .  S
C750        F756   1.385       .  S
C757        C758   1.411       .  A
C757       C2562   1.415       .  A
C757        H764   1.081       .  S
C758        C759   1.426       .  A
C759        C766   1.514       .  S
C759        C760   1.410       .  A
C760        C761   1.398       .  A
C760        H765   1.081       .  S
C761       N2301   1.448       .  S
C761       C2562   1.417       .  A
C762        C763   1.516       .  S
C762       C2557   1.413       .  A
C762       C2561   1.416       .  A
C763        F767   1.381       .  S
C763        F768   1.381       .  S
C763        F769   1.382       .  S
C766        F770   1.375       .  S
C766        F771   1.383       .  S
C766        F772   1.377       .  S
C773        C774   1.394       .  A
C773        C778   1.420   1_655  A
C773        H780   1.083       .  S
C774        C775   1.413       .  A
C775       C2582   1.522       .  S
C775        C776   1.411       .  A
C776        C777   1.415       .  A
C776        H781   1.074       .  S
C777        C778   1.445   1_655  A
C778        C779   1.520       .  S
C779        F784   1.380       .  S
C779        F785   1.378       .  S
C782       C2575   1.521       .  S
C782        F786   1.375       .  S
C782        F787   1.378       .  S
C782        F788   1.381       .  S
C789        C790   1.406       .  A
C789        C794   1.419       .  A
C789        H796   1.084       .  S
C790        C791   1.411       .  A
C791        C798   1.513       .  S
C791        C792   1.405       .  A
C792        C793   1.419       .  A
C792        H797   1.080       .  S
C793        C794   1.434       .  A
C794        C795   1.528       .  S
C795        F799   1.384       .  S
C795        F800   1.377       .  S
C795        F801   1.380       .  S
C798        F802   1.379       .  S
C798        F803   1.383       .  S
C798        F804   1.383       .  S
C805        C806   1.396       .  A
C805        H812   1.078       .  S
C806        C807   1.416       .  A
C807        C814   1.517       .  S
C807        C808   1.407       .  A
C808        H813   1.083   1_556  S
C809        C810   1.414       .  A
C810        C811   1.511       .  S
C811        F815   1.380       .  S
C811        F816   1.381       .  S
C811        F817   1.385       .  S
C814        F818   1.381       .  S
C814        F819   1.380       .  S
C814        F820   1.384       .  S
C821        C822   1.402       .  A
C821        C826   1.411       .  A
C821        H828   1.084       .  S
C822        C823   1.419       .  A
C823        C830   1.507       .  S
C823        C824   1.416       .  A
C824        C825   1.401       .  A
C824        H829   1.083       .  S
C825        C826   1.426       .  A
C826        C827   1.516       .  S
C827        F831   1.383       .  S
C827        F832   1.380       .  S
C827        F833   1.381       .  S
C830        F834   1.373       .  S
C830        F835   1.385       .  S
C830        F836   1.383       .  S
C837        C838   1.396       .  A
C837        C842   1.419       .  A
C837       H1744   1.079       .  S
C838        C839   1.409       .  A
C838       C1364   1.480       .  S
C839        C846   1.512   1_565  S
C839        C840   1.400   1_565  A
C840        C841   1.412   1_545  A
C840        H845   1.085       .  S
C841        C842   1.444       .  A
C842        C843   1.517       .  S
C843       F1747   1.384       .  S
C843        F848   1.379       .  S
C843        F849   1.383       .  S
H844       C1737   1.080       .  S
C846        F850   1.372       .  S
C846        F851   1.381   1_545  S
C846        F852   1.383       .  S
F847       C1743   1.383       .  S
C853        C854   1.416       .  A
C853        C858   1.408       .  A
C853        H860   1.080       .  S
C854        C855   1.442       .  A
C855        C862   1.525       .  S
C855        C856   1.423       .  A
C856        C857   1.403       .  A
C856        H861   1.083       .  S
C857        C858   1.420       .  A
C858        C859   1.516       .  S
C859        F863   1.385       .  S
C859        F864   1.379       .  S
C859        F865   1.370       .  S
C862        F866   1.378       .  S
C862        F867   1.382       .  S
C862        F868   1.382       .  S
C869        C870   1.406       .  A
C869        H876   1.083       .  S
C870        C871   1.413       .  A
C871        C878   1.513       .  S
C872        C873   1.403       .  A
C872        H877   1.084       .  S
C873        C874   1.415       .  A
C874        C875   1.513       .  S
C875        F880   1.384       .  S
C875        F881   1.377       .  S
C878        F882   1.375       .  S
C878        F883   1.381       .  S
C878        F884   1.385   1_556  S
C885        C886   1.395       .  A
C885        C890   1.411       .  A
C885       H1792   1.081       .  S
C886        C887   1.421       .  A
C887        C894   1.509       .  S
C887        C888   1.417       .  A
C888        C889   1.410       .  A
C888        H893   1.085       .  S
C889        C890   1.430       .  A
C890        C891   1.503       .  S
C891       F1795   1.386       .  S
C891        F896   1.374       .  S
C891        F897   1.375       .  S
H892       C1785   1.081       .  S
C894        F898   1.380       .  S
C894        F899   1.383       .  S
C894        F900   1.374       .  S
F895       C1791   1.386       .  S
C901        C902   1.542       .  S
C901        C907   1.526       .  S
C901        C905   1.555       .  S
C901       C1304   1.569       .  S
C902        H909   1.073       .  S
C902        C903   1.375       .  D
C903        C904   1.552       .  S
C903        C971   1.495       .  S
C904        C908   1.549       .  S
C904        C906   1.554       .  S
C904        H910   1.104       .  S
C905        H911   1.080       .  S
C905        C906   1.374       .  D
C906       C1339   1.525       .  S
C907        H912   1.088       .  S
C907        C908   1.358       .  D
C908       C1323   1.493       .  S
N913        C917   1.365       .  A
N913        C914   1.370       .  A
N913       C1336   1.449       .  S
C915        H918   1.083       .  S
C916        C917   1.374       .  A
C916        H919   1.075       .  S
C917       C1320   1.479       .  S
N920        C924   1.366       .  A
N920        C921   1.372       .  A
N920       C1275   1.453       .  S
C921        C922   1.376       .  A
C921       C1240   1.488       .  S
C922        C923   1.354       .  A
C922        H925   1.078       .  S
C923        C924   1.375       .  A
C923        H926   1.082       .  S
C924       C1256   1.472       .  S
C927        C928   1.560       .  S
C927        C933   1.528       .  S
C927        C931   1.552       .  S
C927       C1227   1.566   1_455  S
C928        H935   1.081   1_455  S
C928        C929   1.374       .  D
C929        C930   1.539       .  S
C929        C978   1.491       .  S
C930        C934   1.543       .  S
C930        C932   1.546       .  S
C930        H936   1.109       .  S
C931        H937   1.076       .  S
C931        C932   1.377       .  D
C932       C1272   1.513       .  S
C933        H938   1.088       .  S
C933        C934   1.353       .  D
C934       C1259   1.486       .  S
C939        C940   1.552       .  S
C939        C945   1.525       .  S
C939        C943   1.549       .  S
C939       C1176   1.546       .  S
C940        H947   1.077       .  S
C940        C941   1.378       .  D
C941        C942   1.545       .  S
C941        C961   1.484       .  S
C942        C946   1.547       .  S
C942        C944   1.534       .  S
C942        H948   1.106       .  S
C943        H949   1.082       .  S
C943        C944   1.360       .  D
C944       C1208   1.507       .  S
C945        H950   1.080   1_554  S
C945        C946   1.354       .  D
C946       C1192   1.493   1_554  S
N951        C955   1.362       .  A
N951        C952   1.361       .  A
N951       C3011   1.446       .  S
C952        C953   1.375       .  A
C952       C1163   1.476       .  S
C953        C954   1.359       .  A
C953        H956   1.079       .  S
C954        C955   1.384       .  A
C954        H957   1.083       .  S
C955       C2995   1.469       .  S
N958        C962   1.352       .  A
N958        N959   1.321       .  A
N959        C960   1.336       .  A
N959      Cu2765   2.056   1_455  S
C960        C961   1.382       .  A
C960       H2763   1.080       .  S
C961        C962   1.392       .  A
C962        H964   1.082   1_565  S
H963       C2760   1.081       .  S
Cu965      N2759   2.060       .  S
Cu965       N968   2.059       .  S
Cu966       N976   2.092       .  S
Cu967      N2775   2.102       .  S
N968        C972   1.345       .  A
N968        N969   1.319       .  A
N969        C970   1.345       .  A
C970        C971   1.391       .  A
C970        H973   1.076       .  S
C971        C972   1.388       .  A
C972        H974   1.081       .  S
N975        C979   1.348       .  A
N975        N976   1.324   1_655  A
N975      Cu2767   2.099       .  S
N976        C977   1.348       .  A
C977        C978   1.388       .  A
C977        H980   1.082       .  S
C978        C979   1.386   1_455  A
C979        H981   1.077       .  S
C982        C983   1.540       .  S
C982        C988   1.548       .  S
C982        C986   1.539       .  S
C982       C1243   1.557       .  S
C983        H990   1.083       .  S
C983        C984   1.364       .  D
C984        C985   1.548       .  S
C984       C1144   1.499       .  S
C985        C989   1.546       .  S
C985        C987   1.547       .  S
C985        H991   1.110       .  S
C986        H992   1.087       .  S
C986        C987   1.365       .  D
C987       C1131   1.495       .  S
C988        H993   1.081       .  S
C988        C989   1.375       .  D
C989       C1042   1.495       .  S
N994        C998   1.366       .  A
N994       C2795   1.366       .  A
N994       C1147   1.447       .  S
C995       N2794   1.363       .  A
C995        C996   1.380       .  A
C995       C1224   1.481       .  S
C996       C3247   1.366   1_554  A
C996        H999   1.083   1_554  S
C997       C3246   1.359       .  A
C997       C1448   1.377       .  A
C997       H1000   1.079       .  S
C998       C1447   1.376   1_554  A
C998       C1578   1.481   1_554  S
C1001      C1002   1.539       .  S
C1001      C1007   1.544       .  S
C1001      C1005   1.549       .  S
C1001      C1291   1.564       .  S
C1002      H1009   1.056       .  S
C1002      C1003   1.364       .  D
C1003      C1004   1.547       .  S
C1003      C1059   1.496       .  S
C1004      C1008   1.547       .  S
C1004      C1006   1.548       .  S
C1004      H1010   1.109       .  S
C1005      H1011   1.080       .  S
C1005      C1006   1.372       .  D
C1006      C1112   1.511       .  S
C1007      H1012   1.082       .  S
C1007      C1008   1.364       .  D
C1008      C1096   1.506       .  S
N1013      C1017   1.371       .  A
N1013      C1014   1.375       .  A
N1013      C1115   1.445       .  S
C1014      C1015   1.374       .  A
C1014      C1307   1.502       .  S
C1015      C1466   1.369   1_554  A
C1015      H1018   1.080   1_554  S
C1016      C1465   1.370       .  A
C1016      C1467   1.377       .  A
C1016      H1019   1.082       .  S
C1017      C1466   1.378   1_554  A
C1017      C1549   1.498   1_554  S
C1020      C1021   1.556       .  S
C1020      C1026   1.548       .  S
C1020      C1024   1.529       .  S
C1020      C1160   1.552       .  S
C1021      H1028   1.083       .  S
C1021      C1022   1.368       .  D
C1022      C1023   1.540       .  S
C1022      C1052   1.487       .  S
C1023      C1027   1.545       .  S
C1023      C1025   1.532       .  S
C1024      H1030   1.077       .  S
C1024      C1025   1.356       .  D
C1025      C1080   1.466       .  S
C1026      H1031   1.086       .  S
C1026      C1027   1.375       .  D
C1027      C1064   1.519       .  S
N1032      C1036   1.362       .  A
N1032      C1033   1.372   1_545  A
N1032      C1067   1.455       .  S
C1033      C1034   1.388       .  A
C1033      C1179   1.492       .  S
C1034      C1035   1.352       .  A
C1034      H1037   1.079       .  S
C1035      C1036   1.372   1_565  A
C1035      H1038   1.082       .  S
N1039      C1043   1.352       .  A
N1039      N1040   1.322       .  A
N1039     Cu2847   2.106       .  S
N1040      C1041   1.347       .  A
N1040     Cu1046   2.086       .  S
C1041      C1042   1.386       .  A
C1041      H1044   1.079       .  S
C1042      C1043   1.391       .  A
C1043      H1045   1.080       .  S
Cu1046     N1049   2.086   1_565  S
Cu1047     N2839   2.109   1_455  S
Cu1048     N2850   2.088   1_455  S
Cu1048     N1056   2.088       .  S
N1049      C1053   1.345       .  A
N1050      C1051   1.348       .  A
N1050     Cu2848   2.080       .  S
C1051      C1052   1.388       .  A
C1051      H1054   1.082       .  S
C1053      H1055   1.080       .  S
N1056      C1060   1.352       .  A
N1056      N1057   1.325       .  A
N1057      C1058   1.344       .  A
C1058      C1059   1.392       .  A
C1059      C1060   1.386       .  A
C1060      H1062   1.081       .  S
C1063      C1064   1.410       .  A
C1063      H1070   1.084       .  S
C1064      C1065   1.428       .  A
C1065      C1072   1.517       .  S
C1065      C1516   1.413       .  A
C1066      C1515   1.412   1_554  A
C1066      H1071   1.083       .  S
C1067      C1518   1.422       .  A
C1068      C1069   1.514       .  S
C1068      C1517   1.421       .  A
C1069      F1073   1.378       .  S
C1069      F1524   1.375       .  S
C1069      F1075   1.383       .  S
C1072      F1076   1.380       .  S
C1072      F1077   1.379       .  S
C1072      F1528   1.383       .  S
F1074      C1519   1.377       .  S
F1078      C1522   1.383       .  S
C1079      C1080   1.401       .  A
C1079      C1084   1.401       .  A
C1079      H1086   1.083       .  S
C1080      C1081   1.409       .  A
C1081      C1088   1.517       .  S
C1081      C1082   1.399       .  A
C1082      C1083   1.402       .  A
C1083      C1084   1.414       .  A
C1084      C1085   1.516       .  S
C1085      F1089   1.384       .  S
C1085      F1090   1.382       .  S
C1088      F1092   1.376       .  S
C1088      F1093   1.384       .  S
C1095      C1096   1.401       .  A
C1095      C1100   1.409       .  A
C1095      H1102   1.083       .  S
C1096      C1097   1.428       .  A
C1097      C1104   1.521       .  S
C1097      C1098   1.416       .  A
C1098      C1099   1.404       .  A
C1098      H1103   1.083       .  S
C1099      C1100   1.424       .  A
C1099      C1467   1.496       .  S
C1100      C1551   1.517       .  S
C1101      C1550   1.516       .  S
C1101      F1105   1.385       .  S
C1101      F1106   1.380       .  S
C1101      F1107   1.378   1_556  S
C1104      F1108   1.379       .  S
C1104      F1109   1.379       .  S
C1104      F1110   1.385       .  S
C1111      C1112   1.407       .  A
C1111      C1116   1.406       .  A
C1111      H1118   1.082       .  S
C1112      C1113   1.430       .  A
C1113      C1120   1.518       .  S
C1113      C1114   1.415       .  A
C1114      C1115   1.401       .  A
C1114      H1119   1.084       .  S
C1115      C1116   1.417       .  A
C1116      C1117   1.515       .  S
C1117      F1121   1.385       .  S
C1117      F1122   1.373       .  S
C1117      F1123   1.378       .  S
C1120      F1124   1.381       .  S
C1120      F1125   1.378       .  S
C1120      F1126   1.385       .  S
C1127      C1128   1.400       .  A
C1127      C1132   1.411       .  A
C1127      H2934   1.080       .  S
C1128      C1129   1.420       .  A
C1128      C1448   1.480       .  S
C1129      C1586   1.517       .  S
C1129      C1130   1.404       .  A
C1130      C1131   1.402       .  A
C1130      H1135   1.084       .  S
C1131      C1132   1.420       .  A
C1132      C1133   1.511       .  S
C1133      F2937   1.385       .  S
C1133      F1138   1.384       .  S
C1133      F1139   1.377       .  S
H1134      C2927   1.082       .  S
C1136      C1579   1.517       .  S
C1136      F1140   1.384   1_556  S
C1136      F1141   1.381   1_556  S
C1136      F1142   1.384       .  S
F1137      C2933   1.385       .  S
C1143      C1144   1.405       .  A
C1143      C1148   1.413       .  A
C1143      H1150   1.084       .  S
C1144      C1145   1.423       .  A
C1145      C1152   1.518       .  S
C1145      C1146   1.407       .  A
C1146      C1147   1.399       .  A
C1146      H1151   1.081       .  S
C1147      C1148   1.422       .  A
C1148      C2949   1.515       .  S
C1149      C2948   1.515       .  S
C1149      F1153   1.380       .  S
C1149      F1154   1.383       .  S
C1149      F1155   1.377       .  S
C1152      F1156   1.383       .  S
C1152      F1157   1.382       .  S
C1152      F1158   1.383       .  S
C1159      C1160   1.411       .  A
C1159      C1164   1.399       .  A
C1159      H1166   1.079       .  S
C1160      C1161   1.443       .  A
C1161      C1168   1.525       .  S
C1161      C1162   1.411       .  A
C1162      C1163   1.393       .  A
C1162      H1167   1.083       .  S
C1163      C1164   1.411       .  A
C1164      C1165   1.514       .  S
C1165      F1169   1.382       .  S
C1165      F2970   1.382       .  S
C1165      F1171   1.384       .  S
C1168      F1172   1.385       .  S
C1168      F1173   1.380       .  S
C1168      F1174   1.381       .  S
F1170      C2965   1.382       .  S
C1175      C1176   1.414       .  A
C1175      C1180   1.391       .  A
C1175      H1182   1.082       .  S
C1176      C1177   1.430       .  A
C1177      C1184   1.519   1_565  S
C1177      C1178   1.419   1_565  A
C1178      C1179   1.404   1_545  A
C1178      H1183   1.071       .  S
C1179      C1180   1.416       .  A
C1180      C1181   1.523       .  S
C1181      F1185   1.380       .  S
C1181      F1186   1.382       .  S
C1181      F1187   1.384       .  S
C1184      F1188   1.381       .  S
C1184      F1189   1.382       .  S
C1184      F1190   1.384       .  S
C1191      C1192   1.402       .  A
C1191      C3446   1.399       .  A
C1191      H2998   1.084       .  S
C1192      C1643   1.428       .  A
C1193      C1200   1.524       .  S
C1193      C1642   1.427       .  A
C1193      C1194   1.409       .  A
C1194      C1195   1.402       .  A
C1194      H1199   1.084       .  S
C1195      C2996   1.420       .  A
C1195      C2755   1.471       .  S
C1196      C1197   1.515       .  S
C1196      C3441   1.404       .  A
C1196      C2995   1.413       .  A
C1197      F1651   1.385       .  S
C1197      F1202   1.382       .  S
C1197      F1203   1.380       .  S
H1198      C2991   1.083       .  S
C1200      F1204   1.382       .  S
C1200      F1205   1.381       .  S
C1200      F1206   1.385       .  S
F1201      C1647   1.385       .  S
C1207      C1208   1.404       .  A
C1207      C3012   1.411       .  A
C1207      H1214   1.083       .  S
C1208      C1209   1.421       .  A
C1209      C1216   1.519       .  S
C1209      C1210   1.418       .  A
C1210      C1211   1.408       .  A
C1210      H1215   1.082       .  S
C1211      N2751   1.456       .  S
C1211      C3012   1.420       .  A
C1212      C1213   1.517       .  S
C1212      C3007   1.413       .  A
C1212      C3011   1.416       .  A
C1213      F1217   1.381       .  S
C1213      F1218   1.382       .  S
C1213      F1219   1.382       .  S
C1216      F1220   1.378       .  S
C1216      F1221   1.381       .  S
C1216      F1222   1.370       .  S
C1223      C1224   1.390       .  A
C1223      C1228   1.416   1_655  A
C1223      H1230   1.083       .  S
C1224      C1225   1.408       .  A
C1225      C3032   1.514       .  S
C1225      C1226   1.407       .  A
C1226      C1227   1.414       .  A
C1226      H1231   1.076       .  S
C1227      C1228   1.444   1_655  A
C1228      C1229   1.516       .  S
C1229      F1683   1.385       .  S
C1229      F1234   1.379       .  S
C1229      F1235   1.376       .  S
C1232      C3025   1.522       .  S
C1232      F1236   1.373       .  S
C1232      F1237   1.379       .  S
C1232      F1238   1.380       .  S
F1233      C1679   1.384       .  S
C1239      C1240   1.408       .  A
C1239      C1244   1.419       .  A
C1239      H1246   1.085       .  S
C1240      C1241   1.412       .  A
C1241      C1248   1.513       .  S
C1241      C1242   1.407       .  A
C1242      C1243   1.418       .  A
C1242      H1247   1.080       .  S
C1243      C1244   1.433       .  A
C1244      C1245   1.528       .  S
C1245      F1249   1.385       .  S
C1245      F1250   1.379       .  S
C1245      F1251   1.380       .  S
C1248      F1252   1.377       .  S
C1248      F1253   1.383       .  S
C1248      F1254   1.382       .  S
C1255      C1256   1.398       .  A
C1255      C1710   1.401       .  A
C1255      H1262   1.076       .  S
C1256      C1257   1.417       .  A
C1257      C1264   1.519       .  S
C1257      C1258   1.406       .  A
C1258      C1709   1.405       .  A
C1258      H1263   1.083       .  S
C1259      C1708   1.404       .  A
C1259      C1260   1.416       .  A
C1260      C1261   1.511       .  S
C1260      C1705   1.402   1_554  A
C1261      F1265   1.383       .  S
C1261      F1266   1.378       .  S
C1261      F1267   1.385   1_554  S
C1264      F1268   1.382       .  S
C1264      F1269   1.380       .  S
C1264      F1270   1.385       .  S
C1271      C1272   1.402       .  A
C1271      C1276   1.412       .  A
C1271      H1278   1.084       .  S
C1272      C1273   1.423       .  A
C1273      C1280   1.504       .  S
C1273      C1274   1.416       .  A
C1274      C1275   1.400       .  A
C1274      H1279   1.083       .  S
C1275      C1276   1.427       .  A
C1276      C1277   1.516       .  S
C1277      F1281   1.383       .  S
C1277      F1282   1.380       .  S
C1277      F1283   1.381       .  S
C1280      F1284   1.376       .  S
C1280      F1285   1.385       .  S
C1280      F1286   1.384       .  S
C1287      C1288   1.398       .  A
C1287      C1292   1.421       .  A
C1288      C1289   1.410       .  A
C1289      C1296   1.511       .  S
C1289      C1290   1.400       .  A
C1290      C1291   1.412       .  A
C1290      H1295   1.085       .  S
C1291      C1292   1.443       .  A
C1292      C1293   1.520       .  S
C1293      F1298   1.379       .  S
C1293      F1299   1.383       .  S
C1296      F1300   1.371       .  S
C1296      F1301   1.381       .  S
C1296      F1302   1.384       .  S
C1303      C1304   1.416       .  A
C1303      C1308   1.409       .  A
C1303      H1310   1.080       .  S
C1304      C1305   1.442       .  A
C1305      C1312   1.525       .  S
C1305      C1306   1.424       .  A
C1306      C1307   1.404       .  A
C1306      H1311   1.083       .  S
C1307      C1308   1.421       .  A
C1308      C1309   1.518       .  S
C1309      F1313   1.385       .  S
C1309      F1314   1.379       .  S
C1309      F1315   1.371       .  S
C1312      F1316   1.378       .  S
C1312      F1317   1.382       .  S
C1312      F1318   1.381       .  S
C1319      C1320   1.406       .  A
C1319      C1774   1.413       .  A
C1319      H1326   1.083       .  S
C1320      C1321   1.414       .  A
C1321      C1328   1.518       .  S
C1321      C1772   1.402       .  A
C1322      C1771   1.401   1_554  A
C1322      C1323   1.404       .  A
C1322      H1327   1.083       .  S
C1323      C1324   1.418   1_554  A
C1324      C1325   1.513       .  S
C1324      C1769   1.413       .  A
C1325      F1779   1.385       .  S
C1325      F1330   1.383       .  S
C1325      F1331   1.375   1_556  S
C1328      F1332   1.379       .  S
C1328      F1333   1.382       .  S
C1328      F1334   1.385       .  S
F1329      C1775   1.385       .  S
C1335      C1336   1.393       .  A
C1335      C1340   1.408       .  A
C1336      C1337   1.419       .  A
C1337      C1344   1.512       .  S
C1337      C1338   1.417       .  A
C1338      C1339   1.411       .  A
C1338      H1343   1.085       .  S
C1339      C1340   1.430       .  A
C1340      C1341   1.503       .  S
C1341      F1346   1.374       .  S
C1341      F1347   1.375       .  S
C1344      F1348   1.379       .  S
C1344      F1349   1.384       .  S
C1344      F1350   1.378       .  S
C1351      C1352   1.546       .  S
C1351      C1357   1.526       .  S
C1351      C1355   1.555       .  S
C1351      C1754   1.570       .  S
C1352      H1359   1.073       .  S
C1352      C1353   1.377       .  D
C1353      C1354   1.554       .  S
C1353      C1421   1.501       .  S
C1354      C1358   1.549       .  S
C1354      C1356   1.556       .  S
C1354      H1360   1.104       .  S
C1355      H1361   1.081       .  S
C1355      C1356   1.373       .  D
C1356      C1789   1.527       .  S
C1357      H1362   1.088       .  S
C1357      C1358   1.357       .  D
C1358      C1773   1.493       .  S
N1363      C1367   1.364       .  A
N1363      C1364   1.369       .  A
N1363      C1786   1.450       .  S
C1365      H1368   1.083       .  S
C1366      C1367   1.375       .  A
C1366      H1369   1.074       .  S
C1367      C1770   1.476       .  S
N1370      C1374   1.365       .  A
N1370      C1371   1.373       .  A
N1370      C1725   1.453       .  S
C1371      C1372   1.378       .  A
C1371      C1690   1.492       .  S
C1372      C1373   1.355       .  A
C1372      H1375   1.077       .  S
C1373      C1374   1.375       .  A
C1373      H1376   1.082       .  S
C1374      C1706   1.472       .  S
C1377      C1378   1.560       .  S
C1377      C1383   1.527       .  S
C1377      C1381   1.552       .  S
C1377      C1677   1.564   1_455  S
C1378      H1385   1.082   1_455  S
C1378      C1379   1.373       .  D
C1379      C1380   1.542       .  S
C1379      C1428   1.493       .  S
C1380      C1384   1.544       .  S
C1380      C1382   1.547       .  S
C1380      H1386   1.110       .  S
C1381      H1387   1.079       .  S
C1381      C1382   1.378       .  D
C1382      C1722   1.511       .  S
C1383      H1388   1.088       .  S
C1383      C1384   1.351       .  D
C1384      C1709   1.486       .  S
C1389      C1390   1.552       .  S
C1389      C1395   1.524       .  S
C1389      C1393   1.547       .  S
C1389      C1626   1.543       .  S
C1390      H1397   1.073       .  S
C1390      C1391   1.375       .  D
C1391      C1392   1.547       .  S
C1391      C1411   1.489       .  S
C1392      C1396   1.549       .  S
C1392      C1394   1.540       .  S
C1392      H1398   1.107       .  S
C1393      H1399   1.080       .  S
C1393      C1394   1.359       .  D
C1394      C1658   1.507       .  S
C1395      H1400   1.081       .  S
C1395      C1396   1.352       .  D
C1396      C1642   1.490       .  S
N1401      C1405   1.362       .  A
N1401      C1402   1.360       .  A
N1401      C3461   1.447       .  S
C1402      C1403   1.374       .  A
C1402      C1613   1.472       .  S
C1403      C1404   1.358       .  A
C1403      H1406   1.079       .  S
C1404      C1405   1.383       .  A
C1404      H1407   1.083   1_556  S
C1405      C3445   1.468       .  S
N1408      C1412   1.353       .  A
N1408      N1409   1.322       .  A
N1409      C1410   1.339       .  A
N1409     Cu3215   2.059   1_455  S
C1410      C1411   1.381       .  A
C1410      H3213   1.080       .  S
C1411      C1412   1.394       .  A
C1412      H1414   1.082   1_565  S
H1413      C3210   1.080       .  S
Cu1415     N3209   2.072       .  S
Cu1415     N1418   2.072       .  S
Cu1416     N1426   2.092       .  S
Cu1417     N3225   2.097       .  S
N1418      C1422   1.348       .  A
N1418      N1419   1.320       .  A
N1419      C1420   1.346       .  A
C1420      C1421   1.392       .  A
C1420      H1423   1.075       .  S
C1421      C1422   1.390       .  A
C1422      H1424   1.081       .  S
N1425      C1429   1.348       .  A
N1425      N1426   1.324   1_655  A
N1425     Cu3217   2.103       .  S
N1426      C1427   1.349       .  A
C1427      C1428   1.388       .  A
C1427      H1430   1.081       .  S
C1428      C1429   1.387   1_455  A
C1429      H1431   1.076       .  S
C1432      C1433   1.542       .  S
C1432      C1438   1.545       .  S
C1432      C1436   1.538       .  S
C1432      C1693   1.561       .  S
C1433      H1440   1.081       .  S
C1433      C1434   1.364       .  D
C1434      C1435   1.546       .  S
C1434      C1594   1.502       .  S
C1435      C1439   1.546       .  S
C1435      C1437   1.546       .  S
C1435      H1441   1.108       .  S
C1436      H1442   1.087       .  S
C1436      C1437   1.368       .  D
C1437      C1581   1.497       .  S
C1438      H1443   1.078       .  S
C1438      C1439   1.374       .  D
C1439      C1492   1.492       .  S
N1444      C1448   1.366       .  A
N1444      C3245   1.365       .  A
N1444      C1597   1.448       .  S
C1445      N3244   1.364       .  A
C1445      C1446   1.377       .  A
C1445      C1674   1.484       .  S
C1446      C2797   1.364       .  A
C1446      H1449   1.082       .  S
C1447      C2796   1.360   1_556  A
C1447      H1450   1.078       .  S
C1451      C1452   1.540       .  S
C1451      C1457   1.548       .  S
C1451      C1455   1.550       .  S
C1451      C1741   1.566       .  S
C1452      H1459   1.050       .  S
C1452      C1453   1.364       .  D
C1453      C1454   1.543       .  S
C1453      C1509   1.493       .  S
C1454      C1458   1.546       .  S
C1454      C1456   1.547       .  S
C1454      H1460   1.109       .  S
C1455      H1461   1.081       .  S
C1455      C1456   1.372       .  D
C1456      C1562   1.510       .  S
C1457      H1462   1.082       .  S
C1457      C1458   1.366       .  D
C1458      C1546   1.507       .  S
N1463      C1467   1.370       .  A
N1463      C1464   1.372       .  A
N1463      C1565   1.444       .  S
C1464      C1465   1.375       .  A
C1464      C1757   1.498       .  S
C1465      H1468   1.081       .  S
C1466      H1469   1.081       .  S
C1470      C1471   1.555       .  S
C1470      C1476   1.551       .  S
C1470      C1474   1.530       .  S
C1470      C1610   1.553       .  S
C1471      H1478   1.082       .  S
C1471      C1472   1.367       .  D
C1472      C1473   1.538       .  S
C1472      C1502   1.485       .  S
C1473      C1477   1.546       .  S
C1473      C1475   1.532       .  S
C1474      H1480   1.079       .  S
C1474      C1475   1.355       .  D
C1475      C1530   1.467       .  S
C1476      H1481   1.086       .  S
C1476      C1477   1.376       .  D
C1477      C1514   1.523       .  S
N1482      C1486   1.361       .  A
N1482      C1483   1.369   1_545  A
N1482      C1517   1.454       .  S
C1483      C1484   1.387       .  A
C1483      C1629   1.485       .  S
C1484      C1485   1.353       .  A
C1484      H1487   1.080       .  S
C1485      C1486   1.373   1_565  A
C1485      H1488   1.082       .  S
N1489      C1493   1.351       .  A
N1489      N1490   1.321       .  A
N1489     Cu3297   2.098       .  S
N1490      C1491   1.346       .  A
N1490     Cu1496   2.079       .  S
C1491      C1492   1.386       .  A
C1491      H1494   1.079       .  S
C1492      C1493   1.390       .  A
C1493      H1495   1.081       .  S
Cu1496     N1499   2.079   1_565  S
Cu1497     N3289   2.111   1_455  S
Cu1498     N3300   2.093   1_455  S
Cu1498     N1506   2.093       .  S
N1499      C1503   1.343       .  A
N1500      C1501   1.345       .  A
N1500     Cu3298   2.072       .  S
C1501      C1502   1.385       .  A
C1501      H1504   1.082       .  S
C1503      H1505   1.080       .  S
N1506      C1510   1.352       .  A
N1506      N1507   1.325       .  A
N1507      C1508   1.342       .  A
C1508      C1509   1.389       .  A
C1509      C1510   1.386       .  A
C1510      H1512   1.078       .  S
C1513      C1514   1.412       .  A
C1513      H1520   1.084       .  S
C1514      C1515   1.430       .  A
C1515      C1522   1.517       .  S
C1516      H1521   1.083       .  S
C1518      C1519   1.513       .  S
C1519      F1523   1.380       .  S
C1519      F1525   1.383       .  S
C1522      F1526   1.379       .  S
C1522      F1527   1.379       .  S
C1529      C1530   1.400       .  A
C1529      C1534   1.400       .  A
C1529      H1536   1.082       .  S
C1530      C1531   1.408       .  A
C1531      C1538   1.517       .  S
C1531      C1532   1.401       .  A
C1532      C1533   1.403       .  A
C1533      C1534   1.415       .  A
C1534      C1535   1.517       .  S
C1535      F1539   1.384       .  S
C1535      F1540   1.381       .  S
C1538      F1542   1.376       .  S
C1538      F1543   1.384       .  S
C1545      C1546   1.401       .  A
C1545      C1550   1.408       .  A
C1545      H1552   1.083       .  S
C1546      C1547   1.427       .  A
C1547      C1554   1.520       .  S
C1547      C1548   1.418       .  A
C1548      C1549   1.405       .  A
C1548      H1553   1.083       .  S
C1549      C1550   1.424       .  A
C1551      F1555   1.385       .  S
C1551      F1556   1.381       .  S
C1551      F1557   1.378       .  S
C1554      F1558   1.380       .  S
C1554      F1559   1.380       .  S
C1554      F1560   1.385       .  S
C1561      C1562   1.407       .  A
C1561      C1566   1.405       .  A
C1561      H1568   1.083       .  S
C1562      C1563   1.429       .  A
C1563      C1570   1.517       .  S
C1563      C1564   1.414       .  A
C1564      C1565   1.401       .  A
C1564      H1569   1.084       .  S
C1565      C1566   1.416       .  A
C1566      C1567   1.514       .  S
C1567      F1571   1.384       .  S
C1567      F1572   1.373       .  S
C1567      F1573   1.378       .  S
C1570      F1574   1.381       .  S
C1570      F1575   1.379       .  S
C1570      F1576   1.385       .  S
C1577      C1578   1.401       .  A
C1577      C1582   1.412       .  A
C1577      H3384   1.080       .  S
C1578      C1579   1.420       .  A
C1579      C1580   1.403       .  A
C1580      C1581   1.402       .  A
C1580      H1585   1.084       .  S
C1581      C1582   1.421       .  A
C1582      C1583   1.513       .  S
C1583      F3387   1.385       .  S
C1583      F1588   1.383       .  S
C1583      F1589   1.377       .  S
H1584      C3377   1.079       .  S
C1586      F1590   1.384       .  S
C1586      F1591   1.383       .  S
C1586      F1592   1.383       .  S
F1587      C3383   1.385       .  S
C1593      C1594   1.403       .  A
C1593      C1598   1.413       .  A
C1593      H1600   1.085       .  S
C1594      C1595   1.424       .  A
C1595      C1602   1.518       .  S
C1595      C1596   1.410       .  A
C1596      C1597   1.400       .  A
C1596      H1601   1.083       .  S
C1597      C1598   1.424       .  A
C1598      C3399   1.515       .  S
C1599      C3398   1.518       .  S
C1599      F1603   1.383       .  S
C1599      F1604   1.380       .  S
C1599      F1605   1.380       .  S
C1602      F1606   1.382       .  S
C1602      F1607   1.382       .  S
C1602      F1608   1.383       .  S
C1609      C1610   1.414       .  A
C1609      C1614   1.401       .  A
C1609      H1616   1.077       .  S
C1610      C1611   1.442       .  A
C1611      C1618   1.527       .  S
C1611      C1612   1.410       .  A
C1612      C1613   1.394       .  A
C1612      H1617   1.082       .  S
C1613      C1614   1.411       .  A
C1614      C1615   1.518       .  S
C1615      F1619   1.383       .  S
C1615      F3420   1.382       .  S
C1615      F1621   1.383       .  S
C1618      F1622   1.385       .  S
C1618      F1623   1.380       .  S
C1618      F1624   1.381       .  S
F1620      C3415   1.382       .  S
C1625      C1626   1.415       .  A
C1625      C1630   1.390       .  A
C1625      H1632   1.083       .  S
C1626      C1627   1.428       .  A
C1627      C1634   1.517   1_565  S
C1627      C1628   1.416   1_565  A
C1628      C1629   1.403   1_545  A
C1628      H1633   1.062       .  S
C1629      C1630   1.415       .  A
C1630      C1631   1.523       .  S
C1631      F1635   1.379       .  S
C1631      F1636   1.383       .  S
C1631      F1637   1.384       .  S
C1634      F1638   1.380       .  S
C1634      F1639   1.383       .  S
C1634      F1640   1.383       .  S
C1641      C1642   1.399       .  A
C1641      C2996   1.399       .  A
C1641      H3448   1.085       .  S
C1643      C1650   1.522       .  S
C1643      C1644   1.407       .  A
C1644      C1645   1.399       .  A
C1644      H1649   1.083       .  S
C1645      C3446   1.418       .  A
C1645      C3205   1.471       .  S
C1646      C1647   1.513       .  S
C1646      C2991   1.404   1_556  A
C1646      C3445   1.411       .  A
C1647      F1652   1.381       .  S
C1647      F1653   1.380       .  S
H1648      C3441   1.083       .  S
C1650      F1654   1.381       .  S
C1650      F1655   1.380       .  S
C1650      F1656   1.385       .  S
C1657      C1658   1.399       .  A
C1657      C3462   1.406       .  A
C1657      H1664   1.081       .  S
C1658      C1659   1.422       .  A
C1659      C1666   1.516       .  S
C1659      C1660   1.422       .  A
C1660      C1661   1.407       .  A
C1660      H1665   1.079       .  S
C1661      N3201   1.459       .  S
C1661      C3462   1.421       .  A
C1662      C1663   1.517       .  S
C1662      C3457   1.413       .  A
C1662      C3461   1.415       .  A
C1663      F1667   1.382       .  S
C1663      F1668   1.381       .  S
C1663      F1669   1.383       .  S
C1666      F1670   1.378       .  S
C1666      F1671   1.382       .  S
C1666      F1672   1.372       .  S
C1673      C1674   1.393       .  A
C1673      C1678   1.418   1_655  A
C1673      H1680   1.082       .  S
C1674      C1675   1.409       .  A
C1675      C3482   1.522       .  S
C1675      C1676   1.410       .  A
C1676      C1677   1.416       .  A
C1676      H1681   1.074       .  S
C1677      C1678   1.444   1_655  A
C1678      C1679   1.521       .  S
C1679      F1684   1.380       .  S
C1679      F1685   1.374       .  S
C1682      C3475   1.526       .  S
C1682      F1686   1.376       .  S
C1682      F1687   1.378       .  S
C1682      F1688   1.382       .  S
C1689      C1690   1.410       .  A
C1689      C1694   1.420       .  A
C1689      H1696   1.084       .  S
C1690      C1691   1.411       .  A
C1691      C1698   1.512       .  S
C1691      C1692   1.406       .  A
C1692      C1693   1.419       .  A
C1692      H1697   1.079       .  S
C1693      C1694   1.435       .  A
C1694      C1695   1.529       .  S
C1695      F1699   1.385       .  S
C1695      F1700   1.378       .  S
C1695      F1701   1.381       .  S
C1698      F1702   1.374       .  S
C1698      F1703   1.382       .  S
C1698      F1704   1.382       .  S
C1705      C1706   1.399       .  A
C1705      H1712   1.077       .  S
C1706      C1707   1.416       .  A
C1707      C1714   1.519       .  S
C1707      C1708   1.403   1_556  A
C1708      H1713   1.083       .  S
C1709      C1710   1.414       .  A
C1710      C1711   1.511       .  S
C1711      F1715   1.383       .  S
C1711      F1716   1.378       .  S
C1711      F1717   1.385       .  S
C1714      F1718   1.380       .  S
C1714      F1719   1.380       .  S
C1714      F1720   1.385       .  S
C1721      C1722   1.402       .  A
C1721      C1726   1.413       .  A
C1721      H1728   1.084       .  S
C1722      C1723   1.421       .  A
C1723      C1730   1.502       .  S
C1723      C1724   1.414       .  A
C1724      C1725   1.398       .  A
C1724      H1729   1.083       .  S
C1725      C1726   1.428       .  A
C1726      C1727   1.516       .  S
C1727      F1731   1.383       .  S
C1727      F1732   1.381       .  S
C1727      F1733   1.380       .  S
C1730      F1734   1.372       .  S
C1730      F1735   1.385       .  S
C1730      F1736   1.383       .  S
C1737      C1738   1.398       .  A
C1737      C1742   1.423       .  A
C1738      C1739   1.412       .  A
C1739      C1746   1.511       .  S
C1739      C1740   1.400       .  A
C1740      C1741   1.410       .  A
C1740      H1745   1.085       .  S
C1741      C1742   1.445       .  A
C1742      C1743   1.519       .  S
C1743      F1748   1.380       .  S
C1743      F1749   1.384       .  S
C1746      F1750   1.373       .  S
C1746      F1751   1.380       .  S
C1746      F1752   1.383       .  S
C1753      C1754   1.418       .  A
C1753      C1758   1.408       .  A
C1753      H1760   1.080       .  S
C1754      C1755   1.442       .  A
C1755      C1762   1.524       .  S
C1755      C1756   1.424       .  A
C1756      C1757   1.403       .  A
C1756      H1761   1.083       .  S
C1757      C1758   1.419       .  A
C1758      C1759   1.519       .  S
C1759      F1763   1.385       .  S
C1759      F1764   1.379       .  S
C1759      F1765   1.372       .  S
C1762      F1766   1.375       .  S
C1762      F1767   1.381       .  S
C1762      F1768   1.381       .  S
C1769      C1770   1.405       .  A
C1769      H1776   1.083       .  S
C1770      C1771   1.412       .  A
C1771      C1778   1.517       .  S
C1772      C1773   1.404       .  A
C1772      H1777   1.083       .  S
C1773      C1774   1.417       .  A
C1774      C1775   1.514       .  S
C1775      F1780   1.383       .  S
C1775      F1781   1.376       .  S
C1778      F1782   1.378       .  S
C1778      F1783   1.382       .  S
C1778      F1784   1.384   1_556  S
C1785      C1786   1.393       .  A
C1785      C1790   1.408       .  A
C1786      C1787   1.420       .  A
C1787      C1794   1.514       .  S
C1787      C1788   1.418       .  A
C1788      C1789   1.413       .  A
C1788      H1793   1.084       .  S
C1789      C1790   1.429       .  A
C1790      C1791   1.504       .  S
C1791      F1796   1.376       .  S
C1791      F1797   1.375       .  S
C1794      F1798   1.380       .  S
C1794      F1799   1.384       .  S
C1794      F1800   1.380       .  S
C1801      C1802   1.546       .  S
C1801      C1807   1.526       .  S
C1801      C1805   1.554       .  S
C1801      C2204   1.566       .  S
C1802      H1809   1.075       .  S
C1802      C1803   1.375       .  D
C1803      C1804   1.547       .  S
C1803      C1871   1.493       .  S
C1804      C1808   1.544       .  S
C1804      C1806   1.555       .  S
C1804      H1810   1.106       .  S
C1805      H1811   1.078       .  S
C1805      C1806   1.373       .  D
C1806      C2239   1.522       .  S
C1807      H1812   1.088       .  S
C1807      C1808   1.355       .  D
C1808      C2223   1.482       .  S
N1813      C1817   1.365       .  A
N1813      C1814   1.372       .  A
N1813      C2236   1.456       .  S
C1814      C2715   1.382       .  A
C1814      C3088   1.481       .  S
C1815      C2714   1.380       .  A
C1815      C2716   1.354       .  A
C1815      H1818   1.083       .  S
C1816      C2715   1.355       .  A
C1816      C1817   1.377       .  A
C1816      H1819   1.080       .  S
C1817      C2220   1.472       .  S
N1820      C1824   1.367       .  A
N1820      C1821   1.372       .  A
N1820      C2175   1.454       .  S
C1821      C1822   1.375       .  A
C1821      C2140   1.486       .  S
C1822      C1823   1.356       .  A
C1822      H1825   1.078       .  S
C1823      C1824   1.374       .  A
C1823      H1826   1.081       .  S
C1824      C2156   1.475       .  S
C1827      C1828   1.558       .  S
C1827      C1833   1.532       .  S
C1827      C1831   1.553       .  S
C1827      C2127   1.564       .  S
C1828      H1835   1.084       .  S
C1828      C1829   1.368       .  D
C1829      C1830   1.540       .  S
C1829      C1878   1.489       .  S
C1830      C1834   1.542       .  S
C1830      C1832   1.547       .  S
C1830      H1836   1.109       .  S
C1831      H1837   1.080       .  S
C1831      C1832   1.378       .  D
C1832      C2172   1.506       .  S
C1833      H1838   1.088       .  S
C1833      C1834   1.355       .  D
C1834      C2159   1.488       .  S
C1839      C1840   1.548       .  S
C1839      C1845   1.526       .  S
C1839      C1843   1.555       .  S
C1839      C2076   1.557       .  S
C1840      H1847   1.077       .  S
C1840      C1841   1.380       .  D
C1841      C1842   1.548       .  S
C1841      C1861   1.483       .  S
C1842      C1846   1.533       .  S
C1842      C1844   1.542       .  S
C1842      H1848   1.105       .  S
C1843      H1849   1.078       .  S
C1843      C1844   1.371       .  D
C1844      C2108   1.520       .  S
C1845      H1850   1.082       .  S
C1845      C1846   1.348       .  D
C1846      C2092   1.483       .  S
N1851      C1855   1.362       .  A
N1851      C1852   1.361       .  A
C1852      C1853   1.372       .  A
C1852      C2063   1.472       .  S
C1853      C1854   1.358       .  A
C1853      H1856   1.077       .  S
C1854      C1855   1.382       .  A
C1854      H1857   1.083       .  S
N1858      C1862   1.349       .  A
N1858      N1859   1.322       .  A
N1858     Cu2766   2.081       .  S
N1859      C1860   1.340       .  A
C1860      C1861   1.384       .  A
C1861      C1862   1.388       .  A
C1862      H1864   1.082       .  S
Cu1865     N1868   2.058       .  S
Cu1866     N2758   2.088   1_545  S
Cu1866     N1876   2.089       .  S
Cu1867     N2769   2.099   1_545  S
N1868      C1872   1.346       .  A
N1868      N1869   1.319       .  A
N1869      C1870   1.345       .  A
N1869     Cu2767   2.098       .  S
C1870      C1871   1.391       .  A
C1870      H1873   1.077       .  S
C1871      C1872   1.387       .  A
C1872      H1874   1.082       .  S
N1875      C1879   1.346       .  A
N1875      N1876   1.323       .  A
N1876      C1877   1.350       .  A
C1877      C1878   1.387       .  A
C1877      H1880   1.081       .  S
C1878      C1879   1.386       .  A
C1879      H1881   1.079       .  S
C1882      C1883   1.543       .  S
C1882      C1888   1.545       .  S
C1882      C1886   1.538       .  S
C1882      C2143   1.559       .  S
C1883      H1890   1.083       .  S
C1883      C1884   1.367       .  D
C1884      C1885   1.546       .  S
C1884      C2044   1.500       .  S
C1885      C1889   1.543       .  S
C1885      C1887   1.547       .  S
C1885      H1891   1.109       .  S
C1886      H1892   1.087       .  S
C1886      C1887   1.365       .  D
C1887      C2031   1.498       .  S
C1888      H1893   1.079       .  S
C1888      C1889   1.375       .  D
C1889      C1942   1.489       .  S
N1894      C1898   1.364       .  A
N1894      C2047   1.445       .  S
C1895      C1896   1.380       .  A
C1895      C2124   1.490       .  S
C1896      H1899   1.081   1_554  S
C1897      C2348   1.378       .  A
C1897      H1900   1.081       .  S
C1898      C2347   1.378   1_554  A
C1898      C2478   1.482   1_554  S
C1901      C1902   1.533   1_545  S
C1901      C1907   1.541       .  S
C1901      C1905   1.549       .  S
C1901      C2191   1.552   1_545  S
C1902      H1909   1.075       .  S
C1902      C1903   1.365   1_565  D
C1903      C1904   1.551       .  S
C1903      C1959   1.493       .  S
C1904      C1908   1.548       .  S
C1904      C1906   1.547       .  S
C1904      H1910   1.109       .  S
C1905      H1911   1.077       .  S
C1905      C1906   1.365       .  D
C1906      C2012   1.502       .  S
C1907      H1912   1.082       .  S
C1907      C1908   1.365       .  D
C1908      C1996   1.507       .  S
N1913      C1917   1.371       .  A
N1913      C1914   1.368       .  A
N1913      C2015   1.443       .  S
C1914      C1915   1.372       .  A
C1914      C2207   1.497       .  S
C1915      C2366   1.369   1_554  A
C1915      H1918   1.076   1_554  S
C1916      C2365   1.366       .  A
C1916      C2367   1.378       .  A
C1916      H1919   1.081       .  S
C1917      C2366   1.379   1_554  A
C1917      C2449   1.494   1_554  S
C1920      C1921   1.557       .  S
C1920      C1926   1.549       .  S
C1920      C1924   1.528       .  S
C1920      C2060   1.552       .  S
C1921      H1928   1.082       .  S
C1921      C1922   1.368       .  D
C1922      C1923   1.544       .  S
C1922      C1952   1.494       .  S
C1923      C1927   1.550       .  S
C1923      C1925   1.531       .  S
C1923      H2829   1.101       .  S
C1924      H1930   1.080       .  S
C1924      C1925   1.352       .  D
C1925      C1980   1.465       .  S
C1926      H1931   1.086       .  S
C1926      C1927   1.378       .  D
C1927      C1964   1.525       .  S
H1929      C2823   1.096       .  S
N1932      C1936   1.364       .  A
N1932      C1933   1.377       .  A
N1932      C1967   1.453       .  S
C1933      C1934   1.394       .  A
C1933      C2079   1.518       .  S
C1934      C1935   1.352       .  A
C1934      H1937   1.073       .  S
C1935      C1936   1.366       .  A
C1935      H1938   1.081       .  S
C1936      C2883   1.475       .  S
N1939      C1943   1.351       .  A
N1939      N1940   1.320       .  A
N1940      C1941   1.343       .  A
N1940     Cu1946   2.061       .  S
C1941      C1942   1.383       .  A
C1941      H1944   1.079       .  S
C1942      C1943   1.391       .  A
C1943      H1945   1.079       .  S
Cu1946     N1949   2.061       .  S
Cu1947     N2857   2.097       .  S
Cu1948     N1956   2.084       .  S
N1949      C1953   1.342       .  A
N1949      N2850   1.322       .  A
N1950      C1951   1.349       .  A
N1950      N2849   1.323       .  A
C1951      C1952   1.391       .  A
C1951      H1954   1.082   1_655  S
C1952      C2853   1.387       .  A
C1953      C2852   1.381       .  A
C1953      H1955   1.081       .  S
N1956      C1960   1.350       .  A
N1956      N1957   1.324   1_545  A
N1957      C1958   1.346       .  A
N1957     Cu2847   2.107       .  S
C1958      C1959   1.392   1_565  A
C1958      H2861   1.081       .  S
C1959      C1960   1.386       .  A
C1960      H1962   1.081       .  S
H1961      C2858   1.081       .  S
C1963      C1964   1.415       .  A
C1963      C2868   1.417       .  A
C1963      H1970   1.084       .  S
C1964      C1965   1.430       .  A
C1965      C1972   1.519       .  S
C1965      C2416   1.411       .  A
C1966      C2415   1.413       .  A
C1966      C2867   1.401   1_556  A
C1966      H1971   1.083   1_545  S
C1967      C2866   1.402   1_554  A
C1967      C2418   1.415   1_554  A
C1968      C1969   1.514       .  S
C1968      C2863   1.415       .  A
C1968      C2417   1.418       .  A
C1969      F1973   1.378       .  S
C1969      F2424   1.375       .  S
C1969      F1975   1.382       .  S
C1972      F1976   1.379       .  S
C1972      F1977   1.381       .  S
C1972      F2428   1.384   1_545  S
F1974      C2419   1.377       .  S
F1978      C2422   1.386   1_565  S
C1979      C1980   1.399       .  A
C1979      C1984   1.398       .  A
C1979      H1986   1.084       .  S
C1980      C1981   1.410       .  A
C1981      C1988   1.517       .  S
C1981      C1982   1.402       .  A
C1982      C1983   1.404       .  A
C1982      H2887   1.076       .  S
C1983      C1984   1.413       .  A
C1983      C2836   1.467       .  S
C1984      C1985   1.514       .  S
C1985      F1989   1.383       .  S
C1985      F1990   1.382       .  S
C1985      F2891   1.380       .  S
H1987      C2882   1.078       .  S
C1988      F1992   1.376       .  S
C1988      F1993   1.383       .  S
C1988      F2894   1.384       .  S
F1991      C2885   1.379       .  S
F1994      C2888   1.384       .  S
C1995      C1996   1.399       .  A
C1995      C2000   1.408       .  A
C1995      H2002   1.083       .  S
C1996      C1997   1.427       .  A
C1997      C2004   1.523       .  S
C1997      C1998   1.419       .  A
C1998      C1999   1.407       .  A
C1998      H2003   1.084       .  S
C1999      C2000   1.427       .  A
C1999      C2367   1.499       .  S
C2000      C2451   1.518       .  S
C2001      C2450   1.517       .  S
C2001      F2005   1.381       .  S
C2001      F2006   1.376       .  S
C2001      F2007   1.381   1_556  S
C2004      F2008   1.379       .  S
C2004      F2009   1.381       .  S
C2004      F2010   1.384       .  S
C2011      C2012   1.401       .  A
C2011      C2016   1.402       .  A
C2011      H2018   1.084       .  S
C2012      C2013   1.429       .  A
C2013      C2020   1.519       .  S
C2013      C2014   1.415       .  A
C2014      C2015   1.400       .  A
C2014      H2019   1.083       .  S
C2015      C2016   1.417       .  A
C2016      C2017   1.513       .  S
C2017      F2021   1.379       .  S
C2017      F2022   1.376       .  S
C2017      F2023   1.378       .  S
C2020      F2024   1.379       .  S
C2020      F2025   1.379       .  S
C2020      F2026   1.384       .  S
C2027      C2028   1.400       .  A
C2027      C2032   1.413       .  A
C2028      C2029   1.419       .  A
C2028      C2348   1.485       .  S
C2029      C2486   1.517       .  S
C2029      C2030   1.404       .  A
C2030      C2031   1.403       .  A
C2030      H2035   1.084       .  S
C2031      C2032   1.422       .  A
C2032      C2033   1.513       .  S
C2033      F2038   1.383       .  S
C2033      F2039   1.378       .  S
C2036      C2479   1.518       .  S
C2036      F2040   1.384       .  S
C2036      F2041   1.382   1_556  S
C2036      F2042   1.383       .  S
C2043      C2044   1.407       .  A
C2043      C2048   1.415       .  A
C2043      H2050   1.084       .  S
C2044      C2045   1.422       .  A
C2045      C2052   1.518       .  S
C2045      C2046   1.406       .  A
C2046      C2047   1.397       .  A
C2046      H2051   1.081       .  S
C2047      C2048   1.423       .  A
C2049      F2053   1.383       .  S
C2049      F2054   1.383       .  S
C2049      F2055   1.378       .  S
C2052      F2056   1.383       .  S
C2052      F2057   1.382       .  S
C2052      F2058   1.382       .  S
C2059      C2060   1.412   1_455  A
C2059      C2064   1.401       .  A
C2059      H2066   1.078       .  S
C2060      C2061   1.442       .  A
C2061      C2068   1.526       .  S
C2061      C2062   1.411       .  A
C2062      C2063   1.395   1_655  A
C2062      H2067   1.085       .  S
C2063      C2064   1.413       .  A
C2064      C2065   1.517       .  S
C2065      F2069   1.382       .  S
C2065      F2071   1.382       .  S
C2068      F2072   1.385       .  S
C2068      F2073   1.378       .  S
C2068      F2074   1.381       .  S
C2075      C2076   1.416       .  A
C2075      C2080   1.398       .  A
C2075      H2082   1.081       .  S
C2076      C2077   1.436       .  A
C2077      C2084   1.521       .  S
C2077      C2078   1.426       .  A
C2078      C2079   1.408       .  A
C2078      H2083   1.074       .  S
C2079      C2080   1.418       .  A
C2080      C2081   1.521       .  S
C2081      F2085   1.383       .  S
C2081      F2086   1.381       .  S
C2081      F2087   1.380       .  S
C2084      F2088   1.376       .  S
C2084      F2089   1.382       .  S
C2084      F2090   1.383       .  S
C2091      C2092   1.403       .  A
C2092      C2543   1.422       .  A
C2093      C2100   1.522       .  S
C2093      C2542   1.422       .  A
C2093      C2094   1.400       .  A
C2094      C2095   1.399       .  A
C2094      H2099   1.084       .  S
C2096      C2097   1.515       .  S
C2097      F2551   1.385       .  S
C2097      F2102   1.380   1_455  S
C2097      F2103   1.379       .  S
C2100      F2104   1.380       .  S
C2100      F2105   1.380       .  S
C2100      F2106   1.384       .  S
F2101      C2547   1.385       .  S
C2107      C2108   1.414       .  A
C2107      H2114   1.081       .  S
C2108      C2109   1.428       .  A
C2109      C2116   1.509       .  S
C2109      C2110   1.407       .  A
C2110      C2111   1.393       .  A
C2110      H2115   1.081       .  S
C2112      C2113   1.517       .  S
C2113      F2117   1.381       .  S
C2113      F2118   1.380   1_455  S
C2113      F2119   1.379   1_455  S
C2116      F2120   1.378       .  S
C2116      F2121   1.378       .  S
C2116      F2122   1.385       .  S
C2123      C2124   1.398       .  A
C2123      C2128   1.420       .  A
C2123      H2130   1.083       .  S
C2124      C2125   1.413       .  A
C2125      C2126   1.406       .  A
C2126      C2127   1.416       .  A
C2126      H2131   1.073       .  S
C2127      C2128   1.442       .  A
C2128      C2129   1.522       .  S
C2129      F2583   1.385       .  S
C2129      F2134   1.381       .  S
C2129      F2135   1.380       .  S
C2132      F2136   1.374       .  S
C2132      F2137   1.379       .  S
C2132      F2138   1.380       .  S
F2133      C2579   1.385       .  S
C2139      C2140   1.407       .  A
C2139      C2144   1.419       .  A
C2139      H2146   1.085       .  S
C2140      C2141   1.415       .  A
C2141      C2148   1.515       .  S
C2141      C2142   1.408       .  A
C2142      C2143   1.418       .  A
C2142      H2147   1.081       .  S
C2143      C2144   1.434       .  A
C2144      C2145   1.527       .  S
C2145      F2149   1.386       .  S
C2145      F2150   1.377       .  S
C2145      F2151   1.381       .  S
C2148      F2152   1.379       .  S
C2148      F2153   1.382       .  S
C2148      F2154   1.383       .  S
C2155      C2156   1.397       .  A
C2155      C2610   1.401       .  A
C2155      H2162   1.073       .  S
C2156      C2157   1.415       .  A
C2157      C2164   1.516       .  S
C2157      C2158   1.408       .  A
C2158      C2609   1.406       .  A
C2158      H2163   1.083       .  S
C2159      C2608   1.405       .  A
C2159      C2160   1.415       .  A
C2160      C2161   1.512       .  S
C2160      C2605   1.403   1_554  A
C2161      F2165   1.383       .  S
C2161      F2166   1.377       .  S
C2161      F2167   1.385   1_554  S
C2164      F2168   1.382       .  S
C2164      F2169   1.382       .  S
C2164      F2170   1.384       .  S
C2171      C2172   1.401       .  A
C2171      C2176   1.409       .  A
C2171      H2178   1.085       .  S
C2172      C2173   1.421       .  A
C2173      C2180   1.513       .  S
C2173      C2174   1.419       .  A
C2174      C2175   1.404       .  A
C2174      H2179   1.082       .  S
C2175      C2176   1.426       .  A
C2176      C2177   1.516       .  S
C2177      F2181   1.383       .  S
C2177      F2182   1.379       .  S
C2177      F2183   1.378       .  S
C2180      F2184   1.379       .  S
C2180      F2185   1.384       .  S
C2180      F2186   1.384       .  S
C2187      C2188   1.401       .  A
C2187      C2192   1.417       .  A
C2187      H3094   1.080       .  S
C2188      C2189   1.405       .  A
C2188      C2714   1.478       .  S
C2189      C2196   1.505   1_565  S
C2189      C2190   1.398       .  A
C2190      C2191   1.411       .  A
C2190      H2195   1.079   1_565  S
C2191      C2192   1.438       .  A
C2192      C2193   1.527       .  S
C2193      F3097   1.380       .  S
C2193      F2198   1.379       .  S
C2193      F2199   1.381       .  S
H2194      C3087   1.082       .  S
C2196      F2200   1.375       .  S
C2196      F2201   1.376   1_545  S
C2196      F2202   1.382       .  S
F2197      C3093   1.379       .  S
C2203      C2204   1.420       .  A
C2203      C2208   1.412       .  A
C2203      H2210   1.076       .  S
C2204      C2205   1.442       .  A
C2205      C2212   1.528       .  S
C2205      C2206   1.420       .  A
C2206      C2207   1.401       .  A
C2206      H2211   1.083       .  S
C2207      C2208   1.411       .  A
C2208      C2209   1.516       .  S
C2209      F2213   1.381       .  S
C2209      F2214   1.382       .  S
C2209      F2215   1.376       .  S
C2212      F2216   1.379       .  S
C2212      F2217   1.382       .  S
C2212      F2218   1.383       .  S
C2219      C2220   1.402       .  A
C2219      C2674   1.409       .  A
C2219      H2226   1.083       .  S
C2220      C2221   1.412       .  A
C2221      C2228   1.516       .  S
C2221      C2672   1.402       .  A
C2222      C2671   1.401   1_554  A
C2222      C2223   1.400       .  A
C2222      H2227   1.084       .  S
C2223      C2224   1.416   1_554  A
C2224      C2225   1.513       .  S
C2224      C2669   1.409       .  A
C2225      F2679   1.385       .  S
C2225      F2230   1.383       .  S
C2225      F2231   1.379   1_556  S
C2228      F2232   1.377       .  S
C2228      F2233   1.381       .  S
C2228      F2234   1.384       .  S
F2229      C2675   1.385       .  S
C2235      C2236   1.399       .  A
C2235      C2240   1.409       .  A
C2235      H3142   1.083       .  S
C2236      C2237   1.419       .  A
C2237      C2244   1.504       .  S
C2237      C2238   1.416       .  A
C2238      C2239   1.408       .  A
C2238      H2243   1.085       .  S
C2239      C2240   1.427       .  A
C2240      C2241   1.504       .  S
C2241      F3145   1.386       .  S
C2241      F2246   1.372       .  S
C2241      F2247   1.375       .  S
H2242      C3135   1.082       .  S
C2244      F2248   1.380       .  S
C2244      F2249   1.383       .  S
C2244      F2250   1.380       .  S
F2245      C3141   1.386       .  S
C2251      C2252   1.546       .  S
C2251      C2257   1.525       .  S
C2251      C2255   1.556       .  S
C2251      C2654   1.568       .  S
C2252      H2259   1.076       .  S
C2252      C2253   1.375       .  D
C2253      C2254   1.548       .  S
C2253      C2321   1.496       .  S
C2254      C2258   1.545       .  S
C2254      C2256   1.555       .  S
C2254      H2260   1.105       .  S
C2255      H2261   1.077       .  S
C2255      C2256   1.377       .  D
C2256      C2689   1.529       .  S
C2257      H2262   1.088       .  S
C2257      C2258   1.355       .  D
C2258      C2673   1.484       .  S
N2263      C2267   1.367       .  A
N2263      C2264   1.374       .  A
N2263      C2686   1.459       .  S
C2264      C3165   1.381       .  A
C2264      C3538   1.483       .  S
C2265      C3164   1.381       .  A
C2265      C3166   1.353       .  A
C2265      H2268   1.083       .  S
C2266      C3165   1.352       .  A
C2266      C2267   1.377       .  A
C2266      H2269   1.079       .  S
C2267      C2670   1.474       .  S
N2270      C2274   1.367       .  A
N2270      C2271   1.372       .  A
N2270      C2625   1.454       .  S
C2271      C2272   1.377       .  A
C2271      C2590   1.488       .  S
C2272      C2273   1.356       .  A
C2272      H2275   1.079       .  S
C2273      C2274   1.374       .  A
C2273      H2276   1.081       .  S
C2274      C2606   1.475       .  S
C2277      C2278   1.560       .  S
C2277      C2283   1.534       .  S
C2277      C2281   1.552       .  S
C2277      C2577   1.569       .  S
C2278      H2285   1.082       .  S
C2278      C2279   1.370       .  D
C2279      C2280   1.542       .  S
C2279      C2328   1.494       .  S
C2280      C2284   1.542       .  S
C2280      C2282   1.548       .  S
C2280      H2286   1.109       .  S
C2281      H2287   1.079       .  S
C2281      C2282   1.377       .  D
C2282      C2622   1.509       .  S
C2283      H2288   1.088       .  S
C2283      C2284   1.357       .  D
C2284      C2609   1.490       .  S
C2289      C2290   1.547       .  S
C2289      C2295   1.525       .  S
C2289      C2293   1.552       .  S
C2289      C2526   1.550       .  S
C2290      H2297   1.075       .  S
C2290      C2291   1.379       .  D
C2291      C2292   1.548       .  S
C2291      C2311   1.482       .  S
C2292      C2296   1.534       .  S
C2292      C2294   1.542       .  S
C2292      H2298   1.106       .  S
C2293      H2299   1.078       .  S
C2293      C2294   1.369       .  D
C2294      C2558   1.519       .  S
C2295      H2300   1.083       .  S
C2295      C2296   1.346       .  D
C2296      C2542   1.481       .  S
N2301      C2305   1.361       .  A
N2301      C2302   1.361       .  A
C2302      C2303   1.376       .  A
C2302      C2513   1.473       .  S
C2303      C2304   1.359       .  A
C2303      H2306   1.079       .  S
C2304      C2305   1.383       .  A
C2304      H2307   1.083       .  S
N2308      C2312   1.349       .  A
N2308      N2309   1.322       .  A
N2308     Cu3216   2.081       .  S
N2309      C2310   1.339       .  A
C2310      C2311   1.383       .  A
C2311      C2312   1.388       .  A
C2312      H2314   1.082       .  S
Cu2315     N2318   2.058       .  S
Cu2316     N3208   2.090   1_545  S
Cu2316     N2326   2.091       .  S
Cu2317     N3219   2.096   1_545  S
N2318      C2322   1.347       .  A
N2318      N2319   1.319       .  A
N2319      C2320   1.345       .  A
N2319     Cu3217   2.101       .  S
C2320      C2321   1.392       .  A
C2320      H2323   1.076       .  S
C2321      C2322   1.387       .  A
C2322      H2324   1.082       .  S
N2325      C2329   1.348       .  A
N2325      N2326   1.324       .  A
N2326      C2327   1.350       .  A
C2327      C2328   1.388       .  A
C2327      H2330   1.081       .  S
C2328      C2329   1.388       .  A
C2329      H2331   1.079       .  S
C2332      C2333   1.543       .  S
C2332      C2338   1.542       .  S
C2332      C2336   1.538       .  S
C2332      C2593   1.554       .  S
C2333      H2340   1.083       .  S
C2333      C2334   1.364       .  D
C2334      C2335   1.547       .  S
C2334      C2494   1.499       .  S
C2335      C2339   1.548       .  S
C2335      C2337   1.546       .  S
C2335      H2341   1.108       .  S
C2336      H2342   1.087       .  S
C2336      C2337   1.365       .  D
C2337      C2481   1.497       .  S
C2338      H2343   1.078       .  S
C2338      C2339   1.373       .  D
C2339      C2392   1.492       .  S
N2344      C2348   1.368       .  A
N2344      C2497   1.446       .  S
C2345      C2346   1.379       .  A
C2345      C2574   1.492       .  S
C2346      H2349   1.082       .  S
C2347      H2350   1.079       .  S
C2351      C2352   1.534   1_545  S
C2351      C2357   1.543       .  S
C2351      C2355   1.549       .  S
C2351      C2641   1.550   1_545  S
C2352      H2359   1.075       .  S
C2352      C2353   1.367   1_565  D
C2353      C2354   1.548       .  S
C2353      C2409   1.490       .  S
C2354      C2358   1.547       .  S
C2354      C2356   1.546       .  S
C2354      H2360   1.109       .  S
C2355      H2361   1.081       .  S
C2355      C2356   1.363       .  D
C2356      C2462   1.501       .  S
C2357      H2362   1.082       .  S
C2357      C2358   1.365       .  D
C2358      C2446   1.504       .  S
N2363      C2367   1.375       .  A
N2363      C2364   1.373       .  A
N2363      C2465   1.445       .  S
C2364      C2365   1.373       .  A
C2364      C2657   1.501       .  S
C2365      H2368   1.080       .  S
C2366      H2369   1.080       .  S
C2370      C2371   1.552       .  S
C2370      C2376   1.552       .  S
C2370      C2374   1.529       .  S
C2370      C2510   1.554       .  S
C2371      H2378   1.081       .  S
C2371      C2372   1.364       .  D
C2372      C2373   1.543       .  S
C2372      C2402   1.488       .  S
C2373      C2377   1.550       .  S
C2373      C2375   1.528       .  S
C2373      H3279   1.096       .  S
C2374      H2380   1.077       .  S
C2374      C2375   1.352       .  D
C2375      C2430   1.465       .  S
C2376      H2381   1.085       .  S
C2376      C2377   1.383       .  D
C2377      C2414   1.533       .  S
H2379      C3273   1.097       .  S
N2382      C2386   1.363       .  A
N2382      C2383   1.375       .  A
N2382      C2417   1.453       .  S
C2383      C2384   1.391       .  A
C2383      C2529   1.502       .  S
C2384      C2385   1.350       .  A
C2384      H2387   1.078       .  S
C2385      C2386   1.368       .  A
C2385      H2388   1.082       .  S
C2386      C3333   1.468       .  S
N2389      C2393   1.351       .  A
N2389      N2390   1.319       .  A
N2390      C2391   1.345       .  A
N2390     Cu2396   2.076       .  S
C2391      C2392   1.387       .  A
C2391      H2394   1.080       .  S
C2392      C2393   1.390       .  A
C2393      H2395   1.080       .  S
Cu2396     N2399   2.076       .  S
Cu2397     N3307   2.096       .  S
Cu2398     N2406   2.083       .  S
N2399      C2403   1.341       .  A
N2399      N3300   1.322       .  A
N2400      C2401   1.347       .  A
N2400      N3299   1.321       .  A
C2401      C2402   1.390       .  A
C2401      H2404   1.081   1_655  S
C2402      C3303   1.385       .  A
C2403      C3302   1.384       .  A
C2403      H2405   1.080       .  S
N2406      C2410   1.349       .  A
N2406      N2407   1.324   1_545  A
N2407      C2408   1.345       .  A
N2407     Cu3297   2.099       .  S
C2408      C2409   1.389   1_565  A
C2408      H3311   1.081       .  S
C2409      C2410   1.386       .  A
C2410      H2412   1.081       .  S
H2411      C3308   1.081       .  S
C2413      C2414   1.416       .  A
C2413      C3318   1.416   1_556  A
C2413      H2420   1.083       .  S
C2414      C2415   1.436       .  A
C2415      C2422   1.519       .  S
C2416      C3317   1.403       .  A
C2416      H2421   1.084   1_545  S
C2417      C3316   1.399       .  A
C2418      C2419   1.512   1_556  S
C2418      C3313   1.415       .  A
C2419      F2423   1.375       .  S
C2419      F2425   1.381   1_554  S
C2422      F2426   1.378       .  S
C2422      F2427   1.382       .  S
C2429      C2430   1.398       .  A
C2429      C2434   1.399       .  A
C2429      H2436   1.082       .  S
C2430      C2431   1.408       .  A
C2431      C2438   1.517       .  S
C2431      C2432   1.403       .  A
C2432      C2433   1.406       .  A
C2432      H3337   1.076       .  S
C2433      C2434   1.415       .  A
C2433      C3286   1.469       .  S
C2434      C2435   1.515       .  S
C2435      F2439   1.384       .  S
C2435      F2440   1.382       .  S
C2435      F3341   1.379       .  S
H2437      C3332   1.075       .  S
C2438      F2442   1.379       .  S
C2438      F2443   1.383       .  S
C2438      F3344   1.384       .  S
F2441      C3335   1.381       .  S
F2444      C3338   1.384       .  S
C2445      C2446   1.399       .  A
C2445      C2450   1.406       .  A
C2445      H2452   1.085       .  S
C2446      C2447   1.426       .  A
C2447      C2454   1.520       .  S
C2447      C2448   1.417       .  A
C2448      C2449   1.406       .  A
C2448      H2453   1.083       .  S
C2449      C2450   1.426       .  A
C2451      F2455   1.384       .  S
C2451      F2456   1.379       .  S
C2451      F2457   1.373       .  S
C2454      F2458   1.378       .  S
C2454      F2459   1.380       .  S
C2454      F2460   1.383       .  S
C2461      C2462   1.402       .  A
C2461      C2466   1.404       .  A
C2461      H2468   1.084       .  S
C2462      C2463   1.429       .  A
C2463      C2470   1.518       .  S
C2463      C2464   1.411       .  A
C2464      C2465   1.400       .  A
C2464      H2469   1.084       .  S
C2465      C2466   1.420       .  A
C2466      C2467   1.512       .  S
C2467      F2471   1.382       .  S
C2467      F2472   1.378       .  S
C2467      F2473   1.378       .  S
C2470      F2474   1.383       .  S
C2470      F2475   1.376       .  S
C2470      F2476   1.383       .  S
C2477      C2478   1.398       .  A
C2477      C2482   1.410       .  A
C2478      C2479   1.418       .  A
C2479      C2480   1.405       .  A
C2480      C2481   1.404       .  A
C2480      H2485   1.084       .  S
C2481      C2482   1.420       .  A
C2482      C2483   1.513       .  S
C2483      F2488   1.383       .  S
C2483      F2489   1.377       .  S
C2486      F2490   1.384       .  S
C2486      F2491   1.382       .  S
C2486      F2492   1.383       .  S
C2493      C2494   1.403       .  A
C2493      C2498   1.413       .  A
C2493      H2500   1.085       .  S
C2494      C2495   1.423       .  A
C2495      C2502   1.517       .  S
C2495      C2496   1.409       .  A
C2496      C2497   1.399       .  A
C2496      H2501   1.081       .  S
C2497      C2498   1.423       .  A
C2499      F2503   1.383       .  S
C2499      F2504   1.378       .  S
C2499      F2505   1.383       .  S
C2502      F2506   1.385       .  S
C2502      F2507   1.381       .  S
C2502      F2508   1.381       .  S
C2509      C2510   1.414   1_455  A
C2509      C2514   1.400       .  A
C2509      H2516   1.077       .  S
C2510      C2511   1.442       .  A
C2511      C2518   1.526       .  S
C2511      C2512   1.411       .  A
C2512      C2513   1.394   1_655  A
C2512      H2517   1.084       .  S
C2513      C2514   1.410       .  A
C2514      C2515   1.517       .  S
C2515      F2519   1.382       .  S
C2515      F2521   1.384       .  S
C2518      F2522   1.385       .  S
C2518      F2523   1.379       .  S
C2518      F2524   1.382       .  S
C2525      C2526   1.416       .  A
C2525      C2530   1.393       .  A
C2525      H2532   1.083       .  S
C2526      C2527   1.433       .  A
C2527      C2534   1.519       .  S
C2527      C2528   1.422       .  A
C2528      C2529   1.405       .  A
C2528      H2533   1.074       .  S
C2529      C2530   1.413       .  A
C2530      C2531   1.521       .  S
C2531      F2535   1.380       .  S
C2531      F2536   1.382       .  S
C2531      F2537   1.382       .  S
C2534      F2538   1.376       .  S
C2534      F2539   1.383       .  S
C2534      F2540   1.383       .  S
C2541      C2542   1.403       .  A
C2543      C2550   1.519       .  S
C2543      C2544   1.400   1_554  A
C2544      C2545   1.399       .  A
C2544      H2549   1.084       .  S
C2546      C2547   1.513       .  S
C2547      F2552   1.379   1_455  S
C2547      F2553   1.378       .  S
C2550      F2554   1.379       .  S
C2550      F2555   1.378       .  S
C2550      F2556   1.383   1_554  S
C2557      C2558   1.413       .  A
C2557      H2564   1.082       .  S
C2558      C2559   1.429       .  A
C2559      C2566   1.511       .  S
C2559      C2560   1.408       .  A
C2560      C2561   1.394       .  A
C2560      H2565   1.081       .  S
C2562      C2563   1.517       .  S
C2563      F2567   1.381       .  S
C2563      F2568   1.381   1_455  S
C2563      F2569   1.381   1_455  S
C2566      F2570   1.378       .  S
C2566      F2571   1.379       .  S
C2566      F2572   1.384       .  S
C2573      C2574   1.397       .  A
C2573      C2578   1.420       .  A
C2573      H2580   1.081       .  S
C2574      C2575   1.412       .  A
C2575      C2576   1.410       .  A
C2576      C2577   1.416       .  A
C2576      H2581   1.072       .  S
C2577      C2578   1.443       .  A
C2578      C2579   1.521       .  S
C2579      F2584   1.380       .  S
C2579      F2585   1.380       .  S
C2582      F2586   1.374       .  S
C2582      F2587   1.377       .  S
C2582      F2588   1.381       .  S
C2589      C2590   1.408       .  A
C2589      C2594   1.418       .  A
C2589      H2596   1.084       .  S
C2590      C2591   1.415       .  A
C2591      C2598   1.511       .  S
C2591      C2592   1.404       .  A
C2592      C2593   1.414       .  A
C2592      H2597   1.081       .  S
C2593      C2594   1.433       .  A
C2594      C2595   1.526       .  S
C2595      F2599   1.386       .  S
C2595      F2600   1.376       .  S
C2595      F2601   1.381       .  S
C2598      F2602   1.374       .  S
C2598      F2603   1.382       .  S
C2598      F2604   1.383       .  S
C2605      C2606   1.399       .  A
C2605      H2612   1.075       .  S
C2606      C2607   1.415       .  A
C2607      C2614   1.516       .  S
C2607      C2608   1.406   1_556  A
C2608      H2613   1.083       .  S
C2609      C2610   1.417       .  A
C2610      C2611   1.512       .  S
C2611      F2615   1.381       .  S
C2611      F2616   1.378       .  S
C2611      F2617   1.385       .  S
C2614      F2618   1.382       .  S
C2614      F2619   1.380       .  S
C2614      F2620   1.382       .  S
C2621      C2622   1.402       .  A
C2621      C2626   1.411       .  A
C2621      H2628   1.085       .  S
C2622      C2623   1.424       .  A
C2623      C2630   1.512       .  S
C2623      C2624   1.418       .  A
C2624      C2625   1.402       .  A
C2624      H2629   1.082       .  S
C2625      C2626   1.425       .  A
C2626      C2627   1.515       .  S
C2627      F2631   1.383       .  S
C2627      F2632   1.380       .  S
C2627      F2633   1.379       .  S
C2630      F2634   1.377       .  S
C2630      F2635   1.384       .  S
C2630      F2636   1.383       .  S
C2637      C2638   1.401       .  A
C2637      C2642   1.416       .  A
C2637      H3544   1.079       .  S
C2638      C2639   1.404       .  A
C2638      C3164   1.475       .  S
C2639      C2646   1.505   1_565  S
C2639      C2640   1.396       .  A
C2640      C2641   1.411       .  A
C2640      H2645   1.078   1_565  S
C2641      C2642   1.438       .  A
C2642      C2643   1.527       .  S
C2643      F3547   1.382       .  S
C2643      F2648   1.380       .  S
C2643      F2649   1.381       .  S
H2644      C3537   1.080       .  S
C2646      F2650   1.376       .  S
C2646      F2651   1.378   1_545  S
C2646      F2652   1.382       .  S
F2647      C3543   1.381       .  S
C2653      C2654   1.420       .  A
C2653      C2658   1.415       .  A
C2653      H2660   1.077       .  S
C2654      C2655   1.443       .  A
C2655      C2662   1.528       .  S
C2655      C2656   1.420       .  A
C2656      C2657   1.402       .  A
C2656      H2661   1.083       .  S
C2657      C2658   1.413       .  A
C2658      C2659   1.515       .  S
C2659      F2663   1.381       .  S
C2659      F2664   1.384       .  S
C2659      F2665   1.374       .  S
C2662      F2666   1.379       .  S
C2662      F2667   1.381       .  S
C2662      F2668   1.383       .  S
C2669      C2670   1.403       .  A
C2669      H2676   1.083       .  S
C2670      C2671   1.415       .  A
C2671      C2678   1.514       .  S
C2672      C2673   1.402       .  A
C2672      H2677   1.084       .  S
C2673      C2674   1.417       .  A
C2674      C2675   1.513       .  S
C2675      F2680   1.384       .  S
C2675      F2681   1.377       .  S
C2678      F2682   1.376       .  S
C2678      F2683   1.379       .  S
C2678      F2684   1.385   1_556  S
C2685      C2686   1.398       .  A
C2685      C2690   1.411       .  A
C2685      H3592   1.083       .  S
C2686      C2687   1.420       .  A
C2687      C2694   1.503       .  S
C2687      C2688   1.418       .  A
C2688      C2689   1.409       .  A
C2688      H2693   1.085       .  S
C2689      C2690   1.430       .  A
C2690      C2691   1.505       .  S
C2691      F3595   1.386       .  S
C2691      F2696   1.373       .  S
C2691      F2697   1.375       .  S
H2692      C3585   1.084       .  S
C2694      F2698   1.378       .  S
C2694      F2699   1.383       .  S
C2694      F2700   1.379       .  S
F2695      C3591   1.385       .  S
C2701      C2702   1.550       .  S
C2701      C2707   1.528       .  S
C2701      C2705   1.554       .  S
C2701      C3104   1.570       .  S
C2702      H2709   1.073       .  S
C2702      C2703   1.376       .  D
C2703      C2704   1.546       .  S
C2703      C2771   1.496       .  S
C2704      C2708   1.544       .  S
C2704      C2706   1.552       .  S
C2704      H2710   1.107       .  S
C2705      H2711   1.081       .  S
C2705      C2706   1.373       .  D
C2706      C3139   1.520       .  S
C2707      H2712   1.088       .  S
C2707      C2708   1.355       .  D
C2708      C3123   1.483       .  S
N2713      C2717   1.364       .  A
N2713      C2714   1.371       .  A
N2713      C3136   1.456       .  S
C2715      H2718   1.083       .  S
C2716      C2717   1.377       .  A
C2716      H2719   1.078       .  S
C2717      C3120   1.471       .  S
N2720      C2724   1.370       .  A
N2720      C2721   1.377       .  A
N2720      C3075   1.456       .  S
C2721      C2722   1.377       .  A
C2721      C3040   1.496       .  S
C2722      C2723   1.356       .  A
C2722      H2725   1.077       .  S
C2723      C2724   1.374       .  A
C2723      H2726   1.081       .  S
C2724      C3056   1.480       .  S
C2727      C2728   1.559       .  S
C2727      C2733   1.534       .  S
C2727      C2731   1.554       .  S
C2727      C3027   1.569       .  S
C2728      H2735   1.083       .  S
C2728      C2729   1.368       .  D
C2729      C2730   1.540       .  S
C2729      C2778   1.489       .  S
C2730      C2734   1.543       .  S
C2730      C2732   1.547       .  S
C2730      H2736   1.109       .  S
C2731      H2737   1.080       .  S
C2731      C2732   1.380       .  D
C2732      C3072   1.512       .  S
C2733      H2738   1.088       .  S
C2733      C2734   1.356       .  D
C2734      C3059   1.492       .  S
C2739      C2740   1.543       .  S
C2739      C2745   1.525       .  S
C2739      C2743   1.553       .  S
C2739      C2976   1.548       .  S
C2740      H2747   1.074       .  S
C2740      C2741   1.375       .  D
C2741      C2742   1.548       .  S
C2741      C2761   1.481       .  S
C2742      C2746   1.537       .  S
C2742      C2744   1.546       .  S
C2742      H2748   1.106       .  S
C2743      H2749   1.078       .  S
C2743      C2744   1.371       .  D
C2744      C3008   1.520       .  S
C2745      H2750   1.084       .  S
C2745      C2746   1.347       .  D
C2746      C2992   1.481       .  S
N2751      C2755   1.369       .  A
N2751      C2752   1.365       .  A
C2752      C2753   1.372       .  A
C2752      C2963   1.477       .  S
C2753      C2754   1.355       .  A
C2753      H2756   1.074       .  S
C2754      C2755   1.380       .  A
C2754      H2757   1.083       .  S
N2758      C2762   1.348       .  A
N2758      N2759   1.322       .  A
N2759      C2760   1.341       .  A
C2760      C2761   1.382       .  A
C2761      C2762   1.389       .  A
C2762      H2764   1.082   1_565  S
Cu2765     N2768   2.054       .  S
Cu2766     N2776   2.081       .  S
N2768      C2772   1.346       .  A
N2768      N2769   1.318       .  A
N2769      C2770   1.345       .  A
C2770      C2771   1.393       .  A
C2770      H2773   1.076       .  S
C2771      C2772   1.387       .  A
C2772      H2774   1.082       .  S
N2775      C2779   1.348       .  A
N2775      N2776   1.323       .  A
N2776      C2777   1.348       .  A
C2777      C2778   1.385       .  A
C2777      H2780   1.082       .  S
C2778      C2779   1.387       .  A
C2779      H2781   1.077       .  S
C2782      C2783   1.542       .  S
C2782      C2788   1.546       .  S
C2782      C2786   1.537       .  S
C2782      C3043   1.563       .  S
C2783      H2790   1.082       .  S
C2783      C2784   1.368       .  D
C2784      C2785   1.550       .  S
C2784      C2944   1.504       .  S
C2785      C2789   1.547       .  S
C2785      C2787   1.549       .  S
C2785      H2791   1.109       .  S
C2786      H2792   1.087       .  S
C2786      C2787   1.366       .  D
C2787      C2931   1.498       .  S
C2788      H2793   1.081       .  S
C2788      C2789   1.375       .  D
C2789      C2842   1.497       .  S
N2794      C2798   1.365       .  A
N2794      C2947   1.447       .  S
C2795      C2796   1.380       .  A
C2795      C3024   1.490       .  S
C2796      H2799   1.082   1_554  S
C2797      C3248   1.378       .  A
C2797      H2800   1.082       .  S
C2798      C3247   1.382   1_554  A
C2798      C3378   1.483   1_554  S
C2801      C2802   1.528       .  S
C2801      C2807   1.543       .  S
C2801      C2805   1.552       .  S
C2801      C3091   1.555       .  S
C2802      H2809   1.078       .  S
C2802      C2803   1.364       .  D
C2803      C2804   1.551       .  S
C2803      C2859   1.489       .  S
C2804      C2808   1.546       .  S
C2804      C2806   1.549       .  S
C2804      H2810   1.110       .  S
C2805      H2811   1.073       .  S
C2805      C2806   1.369       .  D
C2806      C2912   1.507       .  S
C2807      H2812   1.081       .  S
C2807      C2808   1.365       .  D
C2808      C2896   1.508       .  S
N2813      C2817   1.373       .  A
N2813      C2814   1.372       .  A
N2813      C2915   1.444       .  S
C2814      C2815   1.374       .  A
C2814      C3107   1.501       .  S
C2815      C3266   1.368   1_554  A
C2815      H2818   1.081   1_554  S
C2816      C3265   1.368       .  A
C2816      C3267   1.380       .  A
C2816      H2819   1.081       .  S
C2817      C3266   1.378   1_554  A
C2817      C3349   1.498   1_554  S
C2820      C2821   1.550       .  S
C2820      C2826   1.550       .  S
C2820      C2824   1.531       .  S
C2820      C2960   1.556       .  S
C2821      H2828   1.082       .  S
C2821      C2822   1.362       .  D
C2822      C2823   1.543       .  S
C2822      C2852   1.484       .  S
C2823      C2827   1.551       .  S
C2823      C2825   1.528       .  S
C2824      H2830   1.076       .  S
C2824      C2825   1.356       .  D
C2825      C2880   1.474       .  S
C2826      H2831   1.085       .  S
C2826      C2827   1.384       .  D
C2827      C2864   1.531       .  S
N2832      C2836   1.362       .  A
N2832      C2833   1.377   1_545  A
N2832      C2867   1.455       .  S
C2833      C2834   1.391       .  A
C2833      C2979   1.504       .  S
C2834      C2835   1.348       .  A
C2834      H2837   1.078       .  S
C2835      C2836   1.368   1_565  A
C2835      H2838   1.081       .  S
N2839      C2843   1.353       .  A
N2839      N2840   1.322       .  A
N2840      C2841   1.346       .  A
N2840     Cu2846   2.085       .  S
C2841      C2842   1.385       .  A
C2841      H2844   1.078       .  S
C2842      C2843   1.392       .  A
C2843      H2845   1.078       .  S
Cu2846     N2849   2.086   1_565  S
Cu2848     N2856   2.080       .  S
N2849      C2853   1.347       .  A
N2850      C2851   1.347       .  A
C2851      C2852   1.390       .  A
C2851      H2854   1.082   1_655  S
C2853      H2855   1.080       .  S
N2856      C2860   1.350       .  A
N2856      N2857   1.324       .  A
N2857      C2858   1.344       .  A
C2858      C2859   1.389       .  A
C2859      C2860   1.385       .  A
C2860      H2862   1.081       .  S
C2863      C2864   1.416       .  A
C2863      H2870   1.083       .  S
C2864      C2865   1.436       .  A
C2865      C2872   1.519       .  S
C2865      C3316   1.409       .  A
C2866      C3315   1.408       .  A
C2866      H2871   1.083       .  S
C2867      C3318   1.418       .  A
C2868      C2869   1.515       .  S
C2868      C3317   1.420       .  A
C2869      F2873   1.378       .  S
C2869      F3324   1.374       .  S
C2869      F2875   1.381       .  S
C2872      F2876   1.377       .  S
C2872      F2877   1.382       .  S
C2872      F3328   1.386       .  S
F2874      C3319   1.376       .  S
F2878      C3322   1.386       .  S
C2879      C2880   1.399       .  A
C2879      C2884   1.400       .  A
C2879      H2886   1.082       .  S
C2880      C2881   1.411       .  A
C2881      C2888   1.516       .  S
C2881      C2882   1.405       .  A
C2882      C2883   1.403       .  A
C2883      C2884   1.415       .  A
C2884      C2885   1.515       .  S
C2885      F2889   1.383       .  S
C2885      F2890   1.384       .  S
C2888      F2892   1.380       .  S
C2888      F2893   1.383       .  S
C2895      C2896   1.401       .  A
C2895      C2900   1.410       .  A
C2895      H2902   1.083       .  S
C2896      C2897   1.427       .  A
C2897      C2904   1.521       .  S
C2897      C2898   1.419       .  A
C2898      C2899   1.406       .  A
C2898      H2903   1.083       .  S
C2899      C2900   1.424       .  A
C2899      C3267   1.504       .  S
C2900      C3351   1.513       .  S
C2901      C3350   1.519       .  S
C2901      F2905   1.384       .  S
C2901      F2906   1.379       .  S
C2901      F2907   1.373   1_556  S
C2904      F2908   1.378       .  S
C2904      F2909   1.380       .  S
C2904      F2910   1.383       .  S
C2911      C2912   1.404       .  A
C2911      C2916   1.405       .  A
C2911      H2918   1.083       .  S
C2912      C2913   1.429       .  A
C2913      C2920   1.519       .  S
C2913      C2914   1.414       .  A
C2914      C2915   1.400       .  A
C2914      H2919   1.083       .  S
C2915      C2916   1.418       .  A
C2916      C2917   1.514       .  S
C2917      F2921   1.381       .  S
C2917      F2922   1.379       .  S
C2917      F2923   1.377       .  S
C2920      F2924   1.379       .  S
C2920      F2925   1.378       .  S
C2920      F2926   1.384       .  S
C2927      C2928   1.402       .  A
C2927      C2932   1.414       .  A
C2928      C2929   1.417       .  A
C2928      C3248   1.480       .  S
C2929      C3386   1.517       .  S
C2929      C2930   1.404       .  A
C2930      C2931   1.403       .  A
C2930      H2935   1.084       .  S
C2931      C2932   1.421       .  A
C2932      C2933   1.513       .  S
C2933      F2938   1.383       .  S
C2933      F2939   1.377       .  S
C2936      C3379   1.515       .  S
C2936      F2940   1.384       .  S
C2936      F2941   1.380   1_556  S
C2936      F2942   1.383       .  S
C2943      C2944   1.406       .  A
C2943      C2948   1.415       .  A
C2943      H2950   1.084       .  S
C2944      C2945   1.423       .  A
C2945      C2952   1.517       .  S
C2945      C2946   1.407       .  A
C2946      C2947   1.400       .  A
C2946      H2951   1.081       .  S
C2947      C2948   1.420       .  A
C2949      F2953   1.383       .  S
C2949      F2954   1.383       .  S
C2949      F2955   1.378       .  S
C2952      F2956   1.384       .  S
C2952      F2957   1.382       .  S
C2952      F2958   1.383       .  S
C2959      C2960   1.413       .  A
C2959      C2964   1.403   1_655  A
C2959      H2966   1.078   1_655  S
C2960      C2961   1.438       .  A
C2961      C2968   1.524       .  S
C2961      C2962   1.414       .  A
C2962      C2963   1.399   1_655  A
C2962      H2967   1.085       .  S
C2963      C2964   1.416       .  A
C2964      C2965   1.520       .  S
C2965      F2969   1.383       .  S
C2965      F2971   1.382       .  S
C2968      F2972   1.385       .  S
C2968      F2973   1.378       .  S
C2968      F2974   1.383       .  S
C2975      C2976   1.415       .  A
C2975      C2980   1.393       .  A
C2975      H2982   1.082       .  S
C2976      C2977   1.436       .  A
C2977      C2984   1.522   1_565  S
C2977      C2978   1.423   1_565  A
C2978      C2979   1.406   1_545  A
C2978      H2983   1.071       .  S
C2979      C2980   1.415       .  A
C2980      C2981   1.521       .  S
C2981      F2985   1.382       .  S
C2981      F2986   1.381       .  S
C2981      F2987   1.381       .  S
C2984      F2988   1.375       .  S
C2984      F2989   1.382       .  S
C2984      F2990   1.382       .  S
C2991      C2992   1.402       .  A
C2992      C3443   1.423       .  A
C2993      C3000   1.523       .  S
C2993      C3442   1.421       .  A
C2993      C2994   1.400       .  A
C2994      C2995   1.399       .  A
C2994      H2999   1.084       .  S
C2996      C2997   1.517       .  S
C2997      F3451   1.384       .  S
C2997      F3002   1.375   1_455  S
C2997      F3003   1.383       .  S
C3000      F3004   1.382       .  S
C3000      F3005   1.380       .  S
C3000      F3006   1.383       .  S
F3001      C3447   1.381       .  S
C3007      C3008   1.413       .  A
C3007      H3014   1.082       .  S
C3008      C3009   1.430       .  A
C3009      C3016   1.512       .  S
C3009      C3010   1.409       .  A
C3010      C3011   1.395       .  A
C3010      H3015   1.082       .  S
C3012      C3013   1.512       .  S
C3013      F3017   1.382       .  S
C3013      F3018   1.382   1_455  S
C3013      F3019   1.378   1_455  S
C3016      F3020   1.379       .  S
C3016      F3021   1.380       .  S
C3016      F3022   1.383       .  S
C3023      C3024   1.398       .  A
C3023      C3028   1.421       .  A
C3023      H3030   1.082       .  S
C3024      C3025   1.411       .  A
C3025      C3026   1.408       .  A
C3026      C3027   1.417       .  A
C3026      H3031   1.072       .  S
C3027      C3028   1.442       .  A
C3028      C3029   1.521       .  S
C3029      F3483   1.385       .  S
C3029      F3034   1.381       .  S
C3029      F3035   1.380       .  S
C3032      F3036   1.370       .  S
C3032      F3037   1.383       .  S
C3032      F3038   1.374       .  S
F3033      C3479   1.386       .  S
C3039      C3040   1.410       .  A
C3039      C3044   1.421       .  A
C3039      H3046   1.085       .  S
C3040      C3041   1.416       .  A
C3041      C3048   1.513       .  S
C3041      C3042   1.411       .  A
C3042      C3043   1.418       .  A
C3042      H3047   1.080       .  S
C3043      C3044   1.434       .  A
C3044      C3045   1.528       .  S
C3045      F3049   1.385       .  S
C3045      F3050   1.379       .  S
C3045      F3051   1.380       .  S
C3048      F3052   1.378       .  S
C3048      F3053   1.382       .  S
C3048      F3054   1.382       .  S
C3055      C3056   1.399       .  A
C3055      C3510   1.403       .  A
C3055      H3062   1.075       .  S
C3056      C3057   1.416       .  A
C3057      C3064   1.517       .  S
C3057      C3058   1.410       .  A
C3058      C3509   1.406       .  A
C3058      H3063   1.083       .  S
C3059      C3508   1.404       .  A
C3059      C3060   1.417       .  A
C3060      C3061   1.512       .  S
C3060      C3505   1.406   1_554  A
C3061      F3065   1.383       .  S
C3061      F3066   1.378       .  S
C3061      F3067   1.385   1_554  S
C3064      F3068   1.381       .  S
C3064      F3069   1.380       .  S
C3064      F3070   1.383       .  S
C3071      C3072   1.403       .  A
C3071      C3076   1.413       .  A
C3071      H3078   1.084       .  S
C3072      C3073   1.422       .  A
C3073      C3080   1.513       .  S
C3073      C3074   1.420       .  A
C3074      C3075   1.404       .  A
C3074      H3079   1.083       .  S
C3075      C3076   1.427       .  A
C3076      C3077   1.519       .  S
C3077      F3081   1.383       .  S
C3077      F3082   1.380       .  S
C3077      F3083   1.378       .  S
C3080      F3084   1.377       .  S
C3080      F3085   1.384       .  S
C3080      F3086   1.383       .  S
C3087      C3088   1.399       .  A
C3087      C3092   1.416       .  A
C3088      C3089   1.403       .  A
C3089      C3096   1.503       .  S
C3089      C3090   1.405       .  A
C3090      C3091   1.413       .  A
C3090      H3095   1.075       .  S
C3091      C3092   1.439       .  A
C3092      C3093   1.528       .  S
C3093      F3098   1.381       .  S
C3093      F3099   1.380       .  S
C3096      F3100   1.377       .  S
C3096      F3101   1.375       .  S
C3096      F3102   1.382       .  S
C3103      C3104   1.420       .  A
C3103      C3108   1.412       .  A
C3103      H3110   1.078       .  S
C3104      C3105   1.442       .  A
C3105      C3112   1.524       .  S
C3105      C3106   1.423       .  A
C3106      C3107   1.402       .  A
C3106      H3111   1.083       .  S
C3107      C3108   1.413       .  A
C3108      C3109   1.516       .  S
C3109      F3113   1.384       .  S
C3109      F3114   1.373       .  S
C3109      F3115   1.380       .  S
C3112      F3116   1.377       .  S
C3112      F3117   1.382       .  S
C3112      F3118   1.382       .  S
C3119      C3120   1.402       .  A
C3119      C3574   1.408       .  A
C3119      H3126   1.083       .  S
C3120      C3121   1.412       .  A
C3121      C3128   1.516       .  S
C3121      C3572   1.400       .  A
C3122      C3571   1.403   1_554  A
C3122      C3123   1.402       .  A
C3122      H3127   1.084       .  S
C3123      C3124   1.416   1_554  A
C3124      C3125   1.512       .  S
C3124      C3569   1.407       .  A
C3125      F3579   1.385       .  S
C3125      F3130   1.383       .  S
C3125      F3131   1.376   1_556  S
C3128      F3132   1.378       .  S
C3128      F3133   1.382       .  S
C3128      F3134   1.384       .  S
F3129      C3575   1.385       .  S
C3135      C3136   1.399       .  A
C3135      C3140   1.408       .  A
C3136      C3137   1.420       .  A
C3137      C3144   1.507       .  S
C3137      C3138   1.415       .  A
C3138      C3139   1.408       .  A
C3138      H3143   1.085       .  S
C3139      C3140   1.426       .  A
C3140      C3141   1.506       .  S
C3141      F3146   1.374       .  S
C3141      F3147   1.373       .  S
C3144      F3148   1.377       .  S
C3144      F3149   1.383       .  S
C3144      F3150   1.380       .  S
C3151      C3152   1.552       .  S
C3151      C3157   1.527       .  S
C3151      C3155   1.556       .  S
C3151      C3554   1.573       .  S
C3152      H3159   1.074       .  S
C3152      C3153   1.378       .  D
C3153      C3154   1.545       .  S
C3153      C3221   1.494       .  S
C3154      C3158   1.543       .  S
C3154      C3156   1.549       .  S
C3154      H3160   1.108       .  S
C3155      H3161   1.079       .  S
C3155      C3156   1.372       .  D
C3156      C3589   1.520       .  S
C3157      H3162   1.088       .  S
C3157      C3158   1.356       .  D
C3158      C3573   1.483       .  S
N3163      C3167   1.365       .  A
N3163      C3164   1.370       .  A
N3163      C3586   1.457       .  S
C3165      H3168   1.083       .  S
C3166      C3167   1.377       .  A
C3166      H3169   1.079       .  S
C3167      C3570   1.470       .  S
N3170      C3174   1.368       .  A
N3170      C3171   1.371       .  A
N3170      C3525   1.451       .  S
C3171      C3172   1.375       .  A
C3171      C3490   1.489       .  S
C3172      C3173   1.357       .  A
C3172      H3175   1.078       .  S
C3173      C3174   1.374       .  A
C3173      H3176   1.079       .  S
C3174      C3506   1.479       .  S
C3177      C3178   1.556       .  S
C3177      C3183   1.536       .  S
C3177      C3181   1.553       .  S
C3177      C3477   1.566       .  S
C3178      H3185   1.084       .  S
C3178      C3179   1.366       .  D
C3179      C3180   1.539       .  S
C3179      C3228   1.487       .  S
C3180      C3184   1.542       .  S
C3180      C3182   1.544       .  S
C3180      H3186   1.109       .  S
C3181      H3187   1.078       .  S
C3181      C3182   1.377       .  D
C3182      C3522   1.503       .  S
C3183      H3188   1.087       .  S
C3183      C3184   1.358       .  D
C3184      C3509   1.494       .  S
C3189      C3190   1.550       .  S
C3189      C3195   1.525       .  S
C3189      C3193   1.554       .  S
C3189      C3426   1.554       .  S
C3190      H3197   1.075       .  S
C3190      C3191   1.378       .  D
C3191      C3192   1.546       .  S
C3191      C3211   1.486       .  S
C3192      C3196   1.533       .  S
C3192      C3194   1.545       .  S
C3192      H3198   1.105       .  S
C3193      H3199   1.077       .  S
C3193      C3194   1.374       .  D
C3194      C3458   1.525       .  S
C3195      H3200   1.084       .  S
C3195      C3196   1.347       .  D
C3196      C3442   1.479       .  S
N3201      C3205   1.368       .  A
N3201      C3202   1.367       .  A
C3202      C3203   1.374       .  A
C3202      C3413   1.476       .  S
C3203      C3204   1.354       .  A
C3203      H3206   1.075   1_455  S
C3204      C3205   1.379       .  A
C3204      H3207   1.079       .  S
N3208      C3212   1.350       .  A
N3208      N3209   1.322       .  A
N3209      C3210   1.341       .  A
C3210      C3211   1.384       .  A
C3211      C3212   1.390       .  A
C3212      H3214   1.082   1_565  S
Cu3215     N3218   2.058       .  S
Cu3216     N3226   2.082       .  S
N3218      C3222   1.347       .  A
N3218      N3219   1.319       .  A
N3219      C3220   1.344       .  A
C3220      C3221   1.392       .  A
C3220      H3223   1.078       .  S
C3221      C3222   1.386       .  A
C3222      H3224   1.082       .  S
N3225      C3229   1.346       .  A
N3225      N3226   1.323       .  A
N3226      C3227   1.348       .  A
C3227      C3228   1.385       .  A
C3227      H3230   1.081       .  S
C3228      C3229   1.385       .  A
C3229      H3231   1.076       .  S
C3232      C3233   1.546       .  S
C3232      C3238   1.544       .  S
C3232      C3236   1.536       .  S
C3232      C3493   1.562       .  S
C3233      H3240   1.082       .  S
C3233      C3234   1.369       .  D
C3234      C3235   1.545       .  S
C3234      C3394   1.503       .  S
C3235      C3239   1.542       .  S
C3235      C3237   1.542       .  S
C3235      H3241   1.110       .  S
C3236      H3242   1.087       .  S
C3236      C3237   1.364       .  D
C3237      C3381   1.487       .  S
C3238      H3243   1.077       .  S
C3238      C3239   1.374       .  D
C3239      C3292   1.492       .  S
N3244      C3248   1.365       .  A
N3244      C3397   1.445       .  S
C3245      C3246   1.380       .  A
C3245      C3474   1.486       .  S
C3246      H3249   1.082       .  S
C3247      H3250   1.082       .  S
C3251      C3252   1.531       .  S
C3251      C3257   1.544       .  S
C3251      C3255   1.550       .  S
C3251      C3541   1.559       .  S
C3252      H3259   1.074       .  S
C3252      C3253   1.366       .  D
C3253      C3254   1.551       .  S
C3253      C3309   1.489       .  S
C3254      C3258   1.549       .  S
C3254      C3256   1.547       .  S
C3254      H3260   1.108       .  S
C3255      H3261   1.076       .  S
C3255      C3256   1.367       .  D
C3256      C3362   1.511       .  S
C3257      H3262   1.081       .  S
C3257      C3258   1.368       .  D
C3258      C3346   1.514       .  S
N3263      C3267   1.374       .  A
N3263      C3264   1.376       .  A
N3263      C3365   1.445       .  S
C3264      C3265   1.373       .  A
C3264      C3557   1.506       .  S
C3265      H3268   1.079       .  S
C3266      H3269   1.081       .  S
C3270      C3271   1.557       .  S
C3270      C3276   1.550       .  S
C3270      C3274   1.533       .  S
C3270      C3410   1.555       .  S
C3271      H3278   1.084       .  S
C3271      C3272   1.367       .  D
C3272      C3273   1.542       .  S
C3272      C3302   1.491       .  S
C3273      C3277   1.547       .  S
C3273      C3275   1.522       .  S
C3274      H3280   1.077       .  S
C3274      C3275   1.354       .  D
C3275      C3330   1.467       .  S
C3276      H3281   1.085       .  S
C3276      C3277   1.382       .  D
C3277      C3314   1.527       .  S
N3282      C3286   1.364       .  A
N3282      C3283   1.377   1_545  A
N3282      C3317   1.455       .  S
C3283      C3284   1.391       .  A
C3283      C3429   1.506       .  S
C3284      C3285   1.350       .  A
C3284      H3287   1.079       .  S
C3285      C3286   1.370   1_565  A
C3285      H3288   1.082       .  S
N3289      C3293   1.353       .  A
N3289      N3290   1.321       .  A
N3290      C3291   1.343       .  A
N3290     Cu3296   2.071       .  S
C3291      C3292   1.381       .  A
C3291      H3294   1.077       .  S
C3292      C3293   1.391       .  A
C3293      H3295   1.077       .  S
Cu3296     N3299   2.070   1_565  S
Cu3298     N3306   2.072       .  S
N3299      C3303   1.344       .  A
N3300      C3301   1.351       .  A
C3301      C3302   1.392       .  A
C3301      H3304   1.082   1_655  S
C3303      H3305   1.080       .  S
N3306      C3310   1.348       .  A
N3306      N3307   1.323       .  A
N3307      C3308   1.344       .  A
C3308      C3309   1.391       .  A
C3309      C3310   1.385       .  A
C3310      H3312   1.082       .  S
C3313      C3314   1.416       .  A
C3313      H3320   1.083       .  S
C3314      C3315   1.434       .  A
C3315      C3322   1.520       .  S
C3316      H3321   1.083       .  S
C3318      C3319   1.514       .  S
C3319      F3323   1.379       .  S
C3319      F3325   1.380   1_554  S
C3322      F3326   1.377       .  S
C3322      F3327   1.382       .  S
C3329      C3330   1.401       .  A
C3329      C3334   1.401       .  A
C3329      H3336   1.082       .  S
C3330      C3331   1.409       .  A
C3331      C3338   1.516       .  S
C3331      C3332   1.401       .  A
C3332      C3333   1.404       .  A
C3333      C3334   1.414       .  A
C3334      C3335   1.517       .  S
C3335      F3339   1.383       .  S
C3335      F3340   1.382       .  S
C3338      F3342   1.376       .  S
C3338      F3343   1.383       .  S
C3345      C3346   1.403       .  A
C3345      C3350   1.411       .  A
C3345      H3352   1.083       .  S
C3346      C3347   1.429       .  A
C3347      C3354   1.520       .  S
C3347      C3348   1.417       .  A
C3348      C3349   1.403       .  A
C3348      H3353   1.084       .  S
C3349      C3350   1.426       .  A
C3351      F3355   1.385       .  S
C3351      F3356   1.380       .  S
C3351      F3357   1.380       .  S
C3354      F3358   1.377       .  S
C3354      F3359   1.378       .  S
C3354      F3360   1.384       .  S
C3361      C3362   1.406       .  A
C3361      C3366   1.408       .  A
C3361      H3368   1.082       .  S
C3362      C3363   1.430       .  A
C3363      C3370   1.518       .  S
C3363      C3364   1.412       .  A
C3364      C3365   1.399       .  A
C3364      H3369   1.084       .  S
C3365      C3366   1.419       .  A
C3366      C3367   1.515       .  S
C3367      F3371   1.384       .  S
C3367      F3372   1.372       .  S
C3367      F3373   1.378       .  S
C3370      F3374   1.382       .  S
C3370      F3375   1.377       .  S
C3370      F3376   1.384       .  S
C3377      C3378   1.404       .  A
C3377      C3382   1.411       .  A
C3378      C3379   1.419       .  A
C3379      C3380   1.401       .  A
C3380      C3381   1.400       .  A
C3380      H3385   1.084       .  S
C3381      C3382   1.417       .  A
C3382      C3383   1.513       .  S
C3383      F3388   1.383       .  S
C3383      F3389   1.378       .  S
C3386      F3390   1.384       .  S
C3386      F3391   1.383       .  S
C3386      F3392   1.382       .  S
C3393      C3394   1.407       .  A
C3393      C3398   1.414       .  A
C3393      H3400   1.084       .  S
C3394      C3395   1.423       .  A
C3395      C3402   1.519       .  S
C3395      C3396   1.410       .  A
C3396      C3397   1.400       .  A
C3396      H3401   1.082       .  S
C3397      C3398   1.419       .  A
C3399      F3403   1.383       .  S
C3399      F3404   1.377       .  S
C3399      F3405   1.383       .  S
C3402      F3406   1.382       .  S
C3402      F3407   1.382       .  S
C3402      F3408   1.381       .  S
C3409      C3410   1.410       .  A
C3409      C3414   1.404   1_655  A
C3409      H3416   1.080   1_655  S
C3410      C3411   1.439       .  A
C3411      C3418   1.523       .  S
C3411      C3412   1.412       .  A
C3412      C3413   1.396   1_655  A
C3412      H3417   1.086       .  S
C3413      C3414   1.418       .  A
C3414      C3415   1.517       .  S
C3415      F3419   1.384       .  S
C3415      F3421   1.383       .  S
C3418      F3422   1.386       .  S
C3418      F3423   1.378       .  S
C3418      F3424   1.382       .  S
C3425      C3426   1.416       .  A
C3425      C3430   1.397       .  A
C3425      H3432   1.084       .  S
C3426      C3427   1.434       .  A
C3427      C3434   1.520   1_565  S
C3427      C3428   1.423   1_565  A
C3428      C3429   1.405   1_545  A
C3428      H3433   1.075       .  S
C3429      C3430   1.416       .  A
C3430      C3431   1.522       .  S
C3431      F3435   1.381       .  S
C3431      F3436   1.381       .  S
C3431      F3437   1.381       .  S
C3434      F3438   1.376       .  S
C3434      F3439   1.383       .  S
C3434      F3440   1.383       .  S
C3441      C3442   1.403       .  A
C3443      C3450   1.522       .  S
C3443      C3444   1.401   1_554  A
C3444      C3445   1.399       .  A
C3444      H3449   1.084       .  S
C3446      C3447   1.517       .  S
C3447      F3452   1.377   1_455  S
C3447      F3453   1.383       .  S
C3450      F3454   1.380       .  S
C3450      F3455   1.380   1_554  S
C3450      F3456   1.383   1_554  S
C3457      C3458   1.414       .  A
C3457      H3464   1.081       .  S
C3458      C3459   1.430       .  A
C3459      C3466   1.508       .  S
C3459      C3460   1.411       .  A
C3460      C3461   1.395       .  A
C3460      H3465   1.081       .  S
C3462      C3463   1.509       .  S
C3463      F3467   1.382       .  S
C3463      F3468   1.382   1_455  S
C3463      F3469   1.382   1_455  S
C3466      F3470   1.378       .  S
C3466      F3471   1.381       .  S
C3466      F3472   1.384       .  S
C3473      C3474   1.397       .  A
C3473      C3478   1.420       .  A
C3473      H3480   1.082       .  S
C3474      C3475   1.412       .  A
C3475      C3476   1.406       .  A
C3476      C3477   1.418       .  A
C3476      H3481   1.073       .  S
C3477      C3478   1.441       .  A
C3478      C3479   1.520       .  S
C3479      F3484   1.381       .  S
C3479      F3485   1.379       .  S
C3482      F3486   1.371       .  S
C3482      F3487   1.379       .  S
C3482      F3488   1.380       .  S
C3489      C3490   1.406       .  A
C3489      C3494   1.420       .  A
C3489      H3496   1.084       .  S
C3490      C3491   1.411       .  A
C3491      C3498   1.512       .  S
C3491      C3492   1.408       .  A
C3492      C3493   1.419       .  A
C3492      H3497   1.079       .  S
C3493      C3494   1.438       .  A
C3494      C3495   1.528       .  S
C3495      F3499   1.385       .  S
C3495      F3500   1.374       .  S
C3495      F3501   1.380       .  S
C3498      F3502   1.377       .  S
C3498      F3503   1.383       .  S
C3498      F3504   1.384       .  S
C3505      C3506   1.399       .  A
C3505      H3512   1.076       .  S
C3506      C3507   1.416       .  A
C3507      C3514   1.516       .  S
C3507      C3508   1.408   1_556  A
C3508      H3513   1.083       .  S
C3509      C3510   1.416       .  A
C3510      C3511   1.512       .  S
C3511      F3515   1.382       .  S
C3511      F3516   1.379       .  S
C3511      F3517   1.385       .  S
C3514      F3518   1.382       .  S
C3514      F3519   1.381       .  S
C3514      F3520   1.383       .  S
C3521      C3522   1.402       .  A
C3521      C3526   1.408       .  A
C3521      H3528   1.084       .  S
C3522      C3523   1.420       .  A
C3523      C3530   1.513       .  S
C3523      C3524   1.417       .  A
C3524      C3525   1.404       .  A
C3524      H3529   1.083       .  S
C3525      C3526   1.425       .  A
C3526      C3527   1.518       .  S
C3527      F3531   1.382       .  S
C3527      F3532   1.380       .  S
C3527      F3533   1.381       .  S
C3530      F3534   1.379       .  S
C3530      F3535   1.384       .  S
C3530      F3536   1.384       .  S
C3537      C3538   1.401       .  A
C3537      C3542   1.421       .  A
C3538      C3539   1.406       .  A
C3539      C3546   1.503       .  S
C3539      C3540   1.399       .  A
C3540      C3541   1.411       .  A
C3540      H3545   1.080       .  S
C3541      C3542   1.440       .  A
C3542      C3543   1.524       .  S
C3543      F3548   1.380       .  S
C3543      F3549   1.381       .  S
C3546      F3550   1.377       .  S
C3546      F3551   1.378       .  S
C3546      F3552   1.382       .  S
C3553      C3554   1.417       .  A
C3553      C3558   1.409       .  A
C3553      H3560   1.082       .  S
C3554      C3555   1.441       .  A
C3555      C3562   1.524       .  S
C3555      C3556   1.427       .  A
C3556      C3557   1.407       .  A
C3556      H3561   1.083       .  S
C3557      C3558   1.421       .  A
C3558      C3559   1.518       .  S
C3559      F3563   1.385       .  S
C3559      F3564   1.382       .  S
C3559      F3565   1.370       .  S
C3562      F3566   1.376       .  S
C3562      F3567   1.382       .  S
C3562      F3568   1.383       .  S
C3569      C3570   1.400       .  A
C3569      H3576   1.082       .  S
C3570      C3571   1.413       .  A
C3571      C3578   1.516       .  S
C3572      C3573   1.402       .  A
C3572      H3577   1.084       .  S
C3573      C3574   1.417       .  A
C3574      C3575   1.514       .  S
C3575      F3580   1.384       .  S
C3575      F3581   1.377       .  S
C3578      F3582   1.380       .  S
C3578      F3583   1.380       .  S
C3578      F3584   1.384   1_556  S
C3585      C3586   1.399       .  A
C3585      C3590   1.408       .  A
C3586      C3587   1.420       .  A
C3587      C3594   1.503       .  S
C3587      C3588   1.416       .  A
C3588      C3589   1.406       .  A
C3588      H3593   1.085       .  S
C3589      C3590   1.429       .  A
C3590      C3591   1.507       .  S
C3591      F3596   1.378       .  S
C3591      F3597   1.369       .  S
C3594      F3598   1.376       .  S
C3594      F3599   1.383       .  S
C3594      F3600   1.380       .  S
