geometry optimzed in LAMMPS
_audit_creation_date              2020-11-30 
_audit_creation_method            'lammps2cif' 
_symmetry_space_group_name_H-M    'P1' 
_symmetry_Int_Tables_number       1 
_symmetry_cell_setting            triclinic 
loop_ 
_symmetry_equiv_pos_as_xyz 
  x,y,z 
_cell_length_a                    41.91788668 
_cell_length_b                    41.89962851991114 
_cell_length_c                    39.08594186197424 
_cell_angle_alpha                 89.82934801861182 
_cell_angle_beta                  90.18215990653118 
_cell_angle_gamma                 120.59531931893335 
loop_ 
_atom_site_label 
_atom_site_type_symbol 
_atom_site_fract_x 
_atom_site_fract_y 
_atom_site_fract_z 
_atom_site_charge 
O1          O  0.38838435  0.16138974  0.79572152    -0.81000
C2          C  0.27356790  0.14529448  0.70583900     0.98300
O3          O  0.27532058  0.12068889  0.72299613    -0.70100
O4          O  0.33359995  0.11451683  0.71405559    -0.73700
Al5        Al  0.31063289  0.12006699  0.75335260     1.49000
C6          C  0.36757983  0.12785534  0.70802820     0.93600
O7          O  0.39940045  0.21992207  0.71749877    -0.79900
O8          O  0.34517394  0.22277899  0.79573014    -0.73500
Al9        Al  0.39017992  0.18918825  0.75657938     1.90100
O10         O  0.35944048  0.23754360  0.72739855    -0.72600
O11         O  0.27856798  0.16730776  0.78104121    -0.72400
O12         O  0.29508640  0.17910570  0.71264002    -0.78100
O13         O  0.28311649  0.11870245  0.79264948    -0.76300
O14         O  0.34081525  0.16942510  0.75477138    -1.12400
O15         O  0.33929266  0.10814097  0.78295779    -0.71600
C16         C  0.36825507  0.12698784  0.80040194     0.99100
C17         C  0.38696527  0.24106530  0.71116658     0.95500
Al18       Al  0.32146277  0.19903681  0.75431900     1.55600
O19         O  0.39160659  0.15438265  0.72583351    -0.76200
C20         C  0.26763581  0.13745974  0.79727506     0.99700
C21         C  0.37872512  0.23660764  0.80420607     0.94600
O22         O  0.39934044  0.22821332  0.78781026    -0.81600
N23         N  0.42968322  0.44919117  0.99649378    -0.02700
C24         C  0.41433621  0.42268332  0.97187170    -0.00100
C25         C  0.37641704  0.40704441  0.97108104    -0.23000
C26         C  0.36776827  0.42392508  0.99625318    -0.23200
C27         C  0.40076987  0.44960464  0.01175791    -0.00200
H28         H  0.35690984  0.38407358  0.95527518     0.13600
H29         H  0.34016523  0.41616406  0.00426137     0.13600
C30         C  0.48993080  0.02645442  0.01214176     0.81000
N31         N  0.47972185  0.51321466  0.99867255    -0.77300
C32         C  0.46842078  0.47645538  0.99993068     0.83500
N33         N  0.49415098  0.46587295  0.99937031    -0.77200
C34         C  0.02765924  0.50845079  0.00963035     0.83500
N35         N  0.02434304  0.03272846  0.00675528    -0.79000
N36         N  0.47402352  0.04950803  0.01685996    -0.02700
C37         C  0.44413044  0.04612443  0.99980260    -0.00100
C38         C  0.42842253  0.06289169  0.01815720    -0.23000
C39         C  0.95319326  0.07178595  0.05052392    -0.23200
C40         C  0.98042513  0.06339238  0.04431108    -0.00200
H41         H  0.40619203  0.06710331  0.00993828     0.13600
H42         H  0.95326923  0.08978043  0.07032347     0.13600
N43         N  0.06655714  0.52133085  0.01342740    -0.02700
C44         C  0.08219241  0.51488894  0.04110809    -0.00100
C45         C  0.11964497  0.54018928  0.04246915    -0.23000
C46         C  0.13789413  0.06948012  0.00888219    -0.23200
C47         C  0.10458418  0.05495912  0.99134352    -0.00200
H48         H  0.13955421  0.53997677  0.06009366     0.13600
H49         H  0.16461031  0.09143424  0.00044748     0.13600
O50         O  0.23226981  0.38959160  0.27788582    -0.81000
C51         C  0.13740389  0.26358396  0.20123161     0.98300
O52         O  0.17155424  0.28291860  0.20780886    -0.70100
O53         O  0.23335498  0.34652433  0.22027742    -0.73700
Al54       Al  0.19380128  0.31010795  0.24870778     1.49000
C55         C  0.23845429  0.37513303  0.20432119     0.93600
O56         O  0.15575659  0.38762573  0.22292481    -0.79900
O57         O  0.11079106  0.33892799  0.27667099    -0.73500
Al58       Al  0.19094731  0.38240313  0.25037725     1.90100
O59         O  0.11536340  0.33113831  0.20699388    -0.72600
O60         O  0.11454708  0.27932485  0.28659722    -0.72400
O61         O  0.11453177  0.26854790  0.21785370    -0.78100
O62         O  0.16009675  0.26940020  0.27763210    -0.76300
O63         O  0.16766183  0.33297107  0.24850744    -1.12400
O64         O  0.21950765  0.33371722  0.28954493    -0.71600
C65         C  0.23928486  0.36807290  0.29457570     0.99100
C66         C  0.12920660  0.36567116  0.20388542     0.95500
Al67       Al  0.11820279  0.30674514  0.24708863     1.55600
O68         O  0.21787195  0.38843441  0.20977891    -0.76200
C69         C  0.13124537  0.26235347  0.29404339     0.99700
C70         C  0.13207768  0.36536250  0.29614417     0.94600
O71         O  0.16665780  0.38176757  0.29139039    -0.81600
N72         N  0.45534550  0.42835810  0.48670086    -0.02700
C73         C  0.45994423  0.40136894  0.50132144    -0.00100
C74         C  0.45302656  0.37433446  0.47738856    -0.23000
C75         C  0.44194817  0.38367569  0.44796528    -0.23200
C76         C  0.44303730  0.41664166  0.45425157    -0.00200
H77         H  0.45064896  0.34774560  0.48242615     0.13600
H78         H  0.43052701  0.36621610  0.42553111     0.13600
C79         C  0.03774940  0.01199748  0.49783873     0.81000
N80         N  0.02563255  0.03677017  0.49696976    -0.77300
C81         C  0.98891705  0.02510109  0.49950491     0.83500
N82         N  0.46189650  0.97914262  0.49566988    -0.77200
C83         C  0.47710156  0.46717066  0.49551574     0.83500
N84         N  0.51493994  0.48454360  0.49556369    -0.79000
N85         N  0.46848051  0.03932775  0.48687000    -0.02700
C86         C  0.43528187  0.03214511  0.49936909    -0.00100
C87         C  0.41353356  0.03242450  0.47269404    -0.23000
C88         C  0.93901465  0.04812999  0.44745286    -0.23200
C89         C  0.97421698  0.05678134  0.45719702    -0.00200
H90         H  0.38756513  0.03180090  0.47523616     0.13600
H91         H  0.93081526  0.05400803  0.42296231     0.13600
N92         N  0.07512499  0.52507466  0.48188927    -0.02700
C93         C  0.08451290  0.52480376  0.44878111    -0.00100
C94         C  0.11324685  0.55935752  0.43940160    -0.23000
C95         C  0.12736212  0.07692494  0.47184932    -0.23200
C96         C  0.10432879  0.05768300  0.49893433    -0.00200
H97         H  0.12864302  0.56660019  0.41572028     0.13600
H98         H  0.15427246  0.10198423  0.47356039     0.13600
C99         C  0.10812156  0.17634146  0.34857732    -0.04700
C100        C  0.07924153  0.17340465  0.36924508     0.09500
C101        C  0.06969158  0.20114156  0.36719889    -0.02100
C102        C  0.08928677  0.23187220  0.34528906    -0.00300
C103        C  0.11568492  0.23310532  0.32168086    -0.03900
C104        C  0.12524994  0.20505573  0.32397932     0.03100
C105        C  0.05800634  0.14084821  0.39279416     0.09900
C106        C  0.03875834  0.19753963  0.38703266     0.35800
C107        C  0.15185767  0.20458708  0.30069489     0.39200
C108        C  0.06003619  0.14618331  0.42856230    -0.04300
C109        C  0.03410206  0.11792699  0.45028499     0.02900
C110        C  0.00730155  0.08309853  0.43656754    -0.03900
C111        C  0.00813641  0.07659536  0.40118806    -0.00100
C112        C  0.03274922  0.10553736  0.37930422    -0.02700
C113        C  0.08750711  0.18172736  0.44277449     0.36600
C114        C  0.98235359  0.04048149  0.38694916     0.40200
C115        C  0.03259558  0.12666909  0.48588676     0.39300
C116        C  0.03055389  0.09953754  0.34262995     0.36200
C117        C  0.11995791  0.14946203  0.35255415     0.36900
C118        C  0.08286770  0.26268437  0.34843707     0.40200
N119        N  0.03131310  0.13448058  0.51401251    -0.37900
N120        N  0.10931498  0.21012986  0.45405276    -0.39500
N121        N  0.96186681  0.01175982  0.37540973    -0.37200
N122        N  0.02886949  0.09473413  0.31337689    -0.39600
N123        N  0.01395653  0.19452294  0.40265725    -0.39400
N124        N  0.07791542  0.28729436  0.35148272    -0.37000
N125        N  0.17294957  0.20385375  0.28216136    -0.38100
N126        N  0.12934267  0.12800561  0.35592974    -0.39700
C127        C  0.07735090  0.43337186  0.42423977    -0.04700
C128        C  0.07752079  0.43603439  0.38831098     0.09500
C129        C  0.07168706  0.46314005  0.37288178    -0.02100
C130        C  0.06909846  0.48946509  0.39331515    -0.00300
C131        C  0.07505194  0.49052707  0.42903737    -0.03900
C132        C  0.07827379  0.46159778  0.44451615     0.03100
C133        C  0.08999590  0.41457783  0.36719914     0.09900
C134        C  0.07056274  0.46529441  0.33589882     0.35800
C135        C  0.08773646  0.46313395  0.48038528     0.39200
C136        C  0.06503707  0.38516772  0.34613547    -0.04300
C137        C  0.07797657  0.36732682  0.32429692     0.02900
C138        C  0.11638638  0.37882697  0.32343912    -0.03900
C139        C  0.14022072  0.40531190  0.34794110    -0.00100
C140        C  0.12744522  0.42400797  0.36858163    -0.02700
C141        C  0.02593955  0.37335725  0.34697137     0.36600
C142        C  0.17749942  0.41235367  0.35356106     0.40200
C143        C  0.05106257  0.33657080  0.30370567     0.39300
C144        C  0.15322847  0.45367254  0.39096263     0.36200
C145        C  0.07902585  0.40288995  0.44013093     0.36900
C146        C  0.06196725  0.51651806  0.37737393     0.40200
N147        N  0.02914675  0.31163676  0.28792974    -0.37900
N148        N  0.99475493  0.36389712  0.34763983    -0.39500
N149        N  0.20701796  0.41766490  0.35866327    -0.37200
N150        N  0.17368026  0.47728182  0.40885087    -0.39600
N151        N  0.06967532  0.46693680  0.30637861    -0.39400
N152        N  0.05620250  0.53801929  0.36457431    -0.37000
N153        N  0.09642240  0.46425083  0.50867704    -0.38100
N154        N  0.08020938  0.37845890  0.45267729    -0.39700
C155        C  0.31503282  0.37398732  0.35495378    -0.04700
C156        C  0.33620115  0.41228017  0.36176503     0.09500
C157        C  0.32535344  0.43617978  0.34758643    -0.02100
C158        C  0.29301989  0.42187479  0.32708724    -0.00300
C159        C  0.27195702  0.38327170  0.31896782    -0.03900
C160        C  0.28385578  0.35960086  0.33313696     0.03100
C161        C  0.36946500  0.42652245  0.38471753     0.09900
C162        C  0.34787641  0.47571555  0.35394326     0.35800
C163        C  0.26514644  0.32034927  0.32500415     0.39200
C164        C  0.40233162  0.42939997  0.37234509    -0.04300
C165        C  0.42915107  0.43118987  0.39545752     0.02900
C166        C  0.42314797  0.42968300  0.43125463    -0.03900
C167        C  0.39210730  0.43134276  0.44330986    -0.00100
C168        C  0.36582230  0.43046469  0.41999851    -0.02700
C169        C  0.40748101  0.42850172  0.33574896     0.36600
C170        C  0.38425002  0.42963813  0.47947281     0.40200
C171        C  0.46145199  0.43142076  0.38217483     0.39300
C172        C  0.33346835  0.43090794  0.43242420     0.36200
C173        C  0.32552116  0.34916005  0.37067884     0.36900
C174        C  0.28172741  0.44746407  0.31516730     0.40200
N175        N  0.48673437  0.43091286  0.37114859    -0.37900
N176        N  0.41153842  0.42788181  0.30653577    -0.39500
N177        N  0.37674076  0.42817946  0.50809705    -0.37200
N178        N  0.30778105  0.43151656  0.44227914    -0.39600
N179        N  0.36597491  0.50725490  0.35889413    -0.39400
N180        N  0.27288725  0.46819329  0.30619184    -0.37000
N181        N  0.25059206  0.28908211  0.31851364    -0.38100
N182        N  0.33390927  0.32949588  0.38335647    -0.39700
C183        C  0.07359633  0.42666866  0.07276600    -0.04700
C184        C  0.07122237  0.43117744  0.10823549     0.09500
C185        C  0.06171871  0.45713699  0.11991916    -0.02100
C186        C  0.05915365  0.48150489  0.09649202    -0.00300
C187        C  0.06655149  0.48026185  0.06151366    -0.03900
C188        C  0.07182419  0.45147857  0.04946188     0.03100
C189        C  0.08541569  0.41367430  0.13283953     0.09900
C190        C  0.05755004  0.46071398  0.15625381     0.35800
C191        C  0.08076239  0.45055091  0.01378995     0.39200
C192        C  0.12405533  0.42909137  0.13648861    -0.04300
C193        C  0.13825992  0.41283523  0.15886854     0.02900
C194        C  0.11393596  0.38110972  0.17836333    -0.03900
C195        C  0.07512418  0.36568676  0.17460093    -0.00100
C196        C  0.06100793  0.38192862  0.15189361    -0.02700
C197        C  0.14932708  0.46211527  0.11724097     0.36600
C198        C  0.04948694  0.33384899  0.19483494     0.40200
C199        C  0.17807302  0.42851781  0.16100159     0.39300
C200        C  0.02135230  0.36629493  0.14830938     0.36200
C201        C  0.08143216  0.39867793  0.06059622     0.36900
C202        C  0.05223094  0.51012161  0.10859433     0.40200
N203        N  0.20987424  0.44133348  0.16239177    -0.37900
N204        N  0.16933517  0.48842815  0.10183761    -0.39500
N205        N  0.02876012  0.30831262  0.21072305    -0.37200
N206        N  0.98972643  0.35401088  0.14549481    -0.39600
N207        N  0.05420283  0.46347787  0.18528614    -0.39400
N208        N  0.04660450  0.53294948  0.11805363    -0.37000
N209        N  0.08867253  0.44976204  0.98560055    -0.38100
N210        N  0.08778602  0.37641320  0.05094047    -0.39700
C211        C  0.07285272  0.14455281  0.06987495    -0.04700
C212        C  0.07091398  0.13941491  0.10562641     0.09500
C213        C  0.04447051  0.10476580  0.11944051    -0.02100
C214        C  0.01758510  0.07692328  0.09797051    -0.00300
C215        C  0.01654785  0.08378389  0.06269941    -0.03900
C216        C  0.04524568  0.11727345  0.04852050     0.03100
C217        C  0.09022668  0.17262139  0.12860447     0.09900
C218        C  0.04299443  0.09898527  0.15613971     0.35800
C219        C  0.04323637  0.12656667  0.01315464     0.39200
C220        C  0.07471510  0.19536754  0.13276474    -0.04300
C221        C  0.09129913  0.22610604  0.15494410     0.02900
C222        C  0.12315665  0.23396827  0.17431988    -0.03900
C223        C  0.13938666  0.21169293  0.16921403    -0.00100
C224        C  0.12306015  0.18134226  0.14622356    -0.02700
C225        C  0.04112982  0.18675465  0.11429140     0.36600
C226        C  0.17211564  0.21893191  0.18830062     0.40200
C227        C  0.07566295  0.24999458  0.15696198     0.39300
C228        C  0.13982644  0.15887334  0.14072108     0.36200
C229        C  0.10096297  0.17977707  0.05564331     0.36900
C230        C  0.47292050  0.04211161  0.11504620     0.40200
N231        N  0.06289790  0.26879659  0.15819720    -0.37900
N232        N  0.01440182  0.17974125  0.09946171    -0.39500
N233        N  0.19833144  0.22467360  0.20336044    -0.37200
N234        N  0.15321951  0.14097094  0.13617856    -0.39600
N235        N  0.04183070  0.09442169  0.18543099    -0.39400
N236        N  0.44942614  0.01302604  0.12333202    -0.37000
N237        N  0.04194899  0.13537408  0.98534729    -0.38100
N238        N  0.12336353  0.20798623  0.04447089    -0.39700
C239        C  0.35433996  0.47019655  0.08038336    -0.04700
C240        C  0.36020440  0.45151619  0.10758201     0.09500
C241        C  0.39104767  0.44655327  0.10637264    -0.02100
C242        C  0.41074225  0.45268696  0.07542296    -0.00300
C243        C  0.40007300  0.46486076  0.04604634    -0.03900
C244        C  0.37544743  0.47826004  0.05019077     0.03100
C245        C  0.33077386  0.43191086  0.13427958     0.09900
C246        C  0.40056227  0.43248934  0.13625359     0.35800
C247        C  0.36883389  0.49645217  0.02171050     0.39200
C248        C  0.30712763  0.39297226  0.13240918    -0.04300
C249        C  0.27723387  0.37431004  0.15540664     0.02900
C250        C  0.27017423  0.39448882  0.18012311    -0.03900
C251        C  0.29431380  0.43343210  0.18232346    -0.00100
C252        C  0.32476682  0.45188688  0.15986481    -0.02700
C253        C  0.31319567  0.37211513  0.10624599     0.36600
C254        C  0.28837757  0.45472218  0.20806245     0.40200
C255        C  0.25294605  0.33446959  0.15262804     0.39300
C256        C  0.35024595  0.49144084  0.16326561     0.36200
C257        C  0.32432504  0.47786371  0.08212344     0.36900
C258        C  0.43944373  0.44323954  0.07341996     0.40200
N259        N  0.23368565  0.30268870  0.15028818    -0.37900
N260        N  0.31828626  0.35563165  0.08542239    -0.39500
N261        N  0.28363601  0.47195736  0.22831896    -0.37200
N262        N  0.37062845  0.52297835  0.16608136    -0.39600
N263        N  0.40820462  0.42141734  0.16018091    -0.39400
N264        N  0.46252177  0.43582633  0.07267412    -0.37000
N265        N  0.36363670  0.51096246  0.99894398    -0.38100
N266        N  0.30028886  0.48385653  0.08358361    -0.39700
C267        C  0.11690404  0.05114119  0.89743577    -0.04700
C268        C  0.14430010  0.08869133  0.89269358     0.09500
C269        C  0.14639443  0.11532288  0.91595762    -0.02100
C270        C  0.12562930  0.10378666  0.94649846    -0.00300
C271        C  0.10439505  0.06563403  0.95476416    -0.03900
C272        C  0.09667190  0.03954145  0.92841177     0.03100
C273        C  0.17473195  0.09941029  0.86704909     0.09900
C274        C  0.17241289  0.15433770  0.90991649     0.35800
C275        C  0.06977411  0.00066806  0.93348671     0.39200
C276        C  0.17353623  0.11357486  0.83465571    -0.04300
C277        C  0.20392697  0.12629775  0.81201319     0.02900
C278        C  0.23555170  0.12407486  0.82130188    -0.03900
C279        C  0.23606822  0.10881840  0.85350291    -0.00100
C280        C  0.20597826  0.09686317  0.87627802    -0.02700
C281        C  0.14076589  0.11461174  0.82456074     0.36600
C282        C  0.26806064  0.10650908  0.86393295     0.40200
C283        C  0.20210942  0.14097565  0.77885427     0.39300
C284        C  0.20726055  0.08225439  0.90965215     0.36200
C285        C  0.11137465  0.02429694  0.87131738     0.36900
C286        C  0.12922794  0.13111800  0.97125855     0.40200
N287        N  0.20072263  0.15283149  0.75246747    -0.37900
N288        N  0.11448605  0.11517017  0.81641985    -0.39500
N289        N  0.29341628  0.10443600  0.87240295    -0.37200
N290        N  0.20806436  0.07057457  0.93630403    -0.39600
N291        N  0.19331375  0.18544467  0.90508646    -0.39400
N292        N  0.13228261  0.15298793  0.99103760    -0.37000
N293        N  0.04791382  0.96950764  0.93640503    -0.38100
N294        N  0.10689237  0.00295998  0.85033975    -0.39700
C295        C  0.22777827  0.14114011  0.61951461    -0.04700
C296        C  0.19425835  0.10684814  0.62221314     0.09500
C297        C  0.18580695  0.08656421  0.65294893    -0.02100
C298        C  0.21092513  0.09993335  0.68064692    -0.00300
C299        C  0.24550432  0.13354073  0.67763528    -0.03900
C300        C  0.25334222  0.15451028  0.64703037     0.03100
C301        C  0.16848675  0.09109539  0.59212681     0.09900
C302        C  0.15134490  0.05136947  0.65575869     0.35800
C303        C  0.28816867  0.18919584  0.64311670     0.39200
C304        C  0.17425853  0.07005370  0.56751583    -0.04300
C305        C  0.15084884  0.05601584  0.53863104     0.02900
C306        C  0.12169209  0.06352114  0.53364122    -0.03900
C307        C  0.11488630  0.08297614  0.55927065    -0.00100
C308        C  0.13810699  0.09658893  0.58845361    -0.02700
C309        C  0.20513670  0.06384554  0.57149290     0.36600
C310        C  0.08448675  0.08969708  0.55550310     0.40200
C311        C  0.15798320  0.03516279  0.51328198     0.39300
C312        C  0.13136724  0.11706700  0.61443831     0.36200
C313        C  0.23623524  0.16230158  0.58801910     0.36900
C314        C  0.20048185  0.07915698  0.71249957     0.40200
N315        N  0.16407076  0.01873688  0.49317374    -0.37900
N316        N  0.22989839  0.05913089  0.57468098    -0.39500
N317        N  0.06009979  0.09506822  0.55334060    -0.37200
N318        N  0.12607048  0.13338099  0.63527967    -0.39600
N319        N  0.12388325  0.02326162  0.65788239    -0.39400
N320        N  0.19214316  0.06261914  0.73790274    -0.37000
N321        N  0.31587093  0.21693160  0.64000939    -0.38100
N322        N  0.24298995  0.17917373  0.56287927    -0.39700
C323        C  0.39683585  0.10266087  0.88454019    -0.04700
C324        C  0.40081221  0.07244450  0.87467372     0.09500
C325        C  0.39365416  0.05985397  0.84061266    -0.02100
C326        C  0.38226554  0.07721075  0.81647776    -0.00300
C327        C  0.37911987  0.10807465  0.82610966    -0.03900
C328        C  0.38657576  0.12078752  0.86024853     0.03100
C329        C  0.41230410  0.05408852  0.90079301     0.09900
C330        C  0.39823913  0.02916290  0.83049065     0.35800
C331        C  0.38254845  0.15177237  0.87067801     0.39200
C332        C  0.38557991  0.02691790  0.92261274    -0.04300
C333        C  0.39673912  0.01840503  0.95368444     0.02900
C334        C  0.43468410  0.03700417  0.96290863    -0.03900
C335        C  0.46137826  0.05804922  0.93761880    -0.00100
C336        C  0.45018506  0.06754798  0.90699356    -0.02700
C337        C  0.34654375  0.01012378  0.91438298     0.36600
C338        C  0.99186518  0.06347876  0.94143830     0.40200
C339        C  0.36893254  0.99376331  0.97794223     0.39300
C340        C  0.47763441  0.09332049  0.88302236     0.36200
C341        C  0.40300550  0.11481358  0.91992657     0.36900
C342        C  0.37445179  0.06362330  0.78157489     0.40200
N343        N  0.34657594  0.97446730  0.99735816    -0.37900
N344        N  0.31539737  0.99667535  0.90775630    -0.39500
N345        N  0.02247188  0.07080091  0.94161443    -0.37200
N346        N  0.49945948  0.11397685  0.86389739    -0.39600
N347        N  0.40208681  0.00476873  0.82246280    -0.39400
N348        N  0.36798525  0.05253453  0.75381806    -0.37000
N349        N  0.37919274  0.17639851  0.87897922    -0.38100
N350        N  0.40776185  0.12420304  0.94822704    -0.39700
C351        C  0.36925365  0.08460420  0.62232885    -0.04700
C352        C  0.40290881  0.08466623  0.62456387     0.09500
C353        C  0.42470367  0.09821598  0.65441295    -0.02100
C354        C  0.41293171  0.11153265  0.68195023    -0.00300
C355        C  0.37948287  0.11230572  0.67955907    -0.03900
C356        C  0.35770693  0.09856245  0.64941645     0.03100
C357        C  0.41633544  0.07285271  0.59424038     0.09900
C358        C  0.45982119  0.09931660  0.65635953     0.35800
C359        C  0.32407561  0.10009192  0.64526028     0.39200
C360        C  0.42963721  0.09609107  0.56528685    -0.04300
C361        C  0.43744130  0.08340362  0.53488870     0.02900
C362        C  0.43261981  0.04730012  0.53323219    -0.03900
C363        C  0.42308468  0.02570070  0.56335486    -0.00100
C364        C  0.41423920  0.03811158  0.59358463    -0.02700
C365        C  0.43450566  0.13295637  0.56666188     0.34600
C366        C  0.42259464  0.99092373  0.56360608     0.40200
C367        C  0.44998039  0.10767427  0.50520344     0.39300
C368        C  0.40209471  0.01476816  0.62380495     0.36200
C369        C  0.34686082  0.07097232  0.59152068     0.36900
C370        C  0.43514274  0.12366377  0.71292939     0.40200
N371        N  0.95189189  0.13095660  0.48240749    -0.37900
N372        N  0.43828060  0.16228222  0.56787495    -0.39500
N373        N  0.42278763  0.96343812  0.56491285    -0.37200
N374        N  0.39249450  0.99619156  0.64797165    -0.39600
N375        N  0.48784681  0.10021120  0.65779460    -0.39400
N376        N  0.45285114  0.13319401  0.73764761    -0.37000
N377        N  0.29723547  0.10121497  0.64177756    -0.38100
N378        N  0.32917258  0.06036430  0.56685516    -0.39700
C379        C  0.41808275  0.33098790  0.66187968    -0.04700
C380        C  0.42682700  0.32250169  0.62965773     0.09500
C381        C  0.42561631  0.28847166  0.62502156    -0.02100
C382        C  0.41420588  0.26237924  0.65200077    -0.00300
C383        C  0.40398283  0.27021419  0.68402310    -0.03900
C384        C  0.40739003  0.30532425  0.68911686     0.03100
C385        C  0.43533398  0.34834508  0.59986591     0.09900
C386        C  0.43491362  0.27982048  0.59194227     0.35800
C387        C  0.40066724  0.31548517  0.72265834     0.39200
C388        C  0.47227026  0.37479706  0.59139895    -0.04300
C389        C  0.48027925  0.39555538  0.56074014     0.02900
C390        C  0.45157088  0.38959177  0.53797520    -0.03900
C391        C  0.41432611  0.36439805  0.54759967    -0.00100
C392        C  0.40633263  0.34438776  0.57860433    -0.02700
C393        C  0.50211351  0.37927429  0.61350311     0.36600
C394        C  0.38417506  0.35603364  0.52414012     0.40200
C395        C  0.51828216  0.42165183  0.55189991     0.39300
C396        C  0.36821317  0.31805394  0.58781936     0.36200
C397        C  0.41903912  0.36577052  0.66663649     0.36900
C398        C  0.41143573  0.22687033  0.64608574     0.40200
N399        N  0.54890870  0.44249341  0.54549173    -0.37900
N400        N  0.52587391  0.38265019  0.63112418    -0.39500
N401        N  0.35981626  0.34835306  0.50549709    -0.37200
N402        N  0.33784996  0.29706221  0.59525763    -0.39600
N403        N  0.44229112  0.27297609  0.56551006    -0.39400
N404        N  0.40933714  0.19861060  0.64131132    -0.37000
N405        N  0.39548970  0.32353384  0.74950238    -0.38100
N406        N  0.41954843  0.39342293  0.67029870    -0.39700
C407        C  0.43612519  0.38582583  0.89419332    -0.04700
C408        C  0.43172377  0.35246738  0.90772521     0.09500
C409        C  0.43256201  0.34844009  0.94356705    -0.02100
C410        C  0.43285085  0.37528415  0.96556221    -0.00300
C411        C  0.43244234  0.40628332  0.95179806    -0.03900
C412        C  0.43645525  0.41260915  0.91622693     0.03100
C413        C  0.42026259  0.31981906  0.88445552     0.09900
C414        C  0.42952376  0.31494346  0.95766332     0.35800
C415        C  0.43683101  0.44479136  0.90205950     0.39200
C416        C  0.44487947  0.32013857  0.85976593    -0.04300
C417        C  0.43174380  0.29299023  0.83367268     0.02900
C418        C  0.39411762  0.26368762  0.83332832    -0.03900
C419        C  0.37067748  0.26136273  0.86050882    -0.00100
C420        C  0.38330029  0.28981513  0.88515366    -0.02700
C421        C  0.48366633  0.34899479  0.86093250     0.36600
C422        C  0.33347886  0.22951433  0.86362000     0.40200
C423        C  0.45676071  0.29681960  0.80631339     0.39300
C424        C  0.35769072  0.28869990  0.91072853     0.36200
C425        C  0.43693802  0.39114869  0.85744425     0.36900
C426        C  0.42889773  0.36869959  0.00216912     0.40200
N427        N  0.47678569  0.30013045  0.78444563    -0.37900
N428        N  0.51459642  0.37199371  0.86202022    -0.39500
N429        N  0.30385982  0.20412759  0.86627293    -0.37200
N430        N  0.33737267  0.28775862  0.93123840    -0.39600
N431        N  0.42677181  0.28805721  0.96887652    -0.39400
N432        N  0.42541012  0.36315400  0.03132414    -0.37000
N433        N  0.43671817  0.47019069  0.89055184    -0.38100
N434        N  0.43775283  0.39536113  0.82811533    -0.39700
O435        O  0.37728006  0.66107235  0.79934336    -0.81000
C436        C  0.26075629  0.63325675  0.70780812     0.98300
O437        O  0.26327876  0.60994869  0.72655344    -0.70100
O438        O  0.32420715  0.60844137  0.71799068    -0.73700
Al439      Al  0.30084719  0.61308304  0.75713896     1.49000
C440        C  0.35838766  0.62296091  0.71247111     0.93600
O441        O  0.38350484  0.71232627  0.71806267    -0.79900
O442        O  0.32758029  0.71457025  0.79660378    -0.73500
Al443      Al  0.37721411  0.68537017  0.75870614     1.90100
O444        O  0.34293993  0.72932516  0.72761584    -0.72600
O445        O  0.26328685  0.65587345  0.78164864    -0.72400
O446        O  0.28108325  0.66740935  0.71379046    -0.78100
O447        O  0.27362909  0.61144032  0.79647333    -0.76300
O448        O  0.32796376  0.66262549  0.75702869    -1.12400
O449        O  0.33306450  0.60507345  0.78698853    -0.71600
C450        C  0.36167603  0.62665195  0.80412010     0.99100
C451        C  0.36984288  0.73210505  0.71062631     0.95500
Al452      Al  0.30573379  0.68946682  0.75516003     1.55600
O453        O  0.38137481  0.65029043  0.73022979    -0.76200
C454        C  0.25534392  0.62762721  0.79950291     0.99700
C455        C  0.36155226  0.73152262  0.80410992     0.94600
O456        O  0.38387811  0.72550494  0.78759765    -0.81600
N457        N  0.45840008  0.92738794  0.02136062    -0.02700
C458        C  0.46465745  0.90130485  0.00749406    -0.00100
C459        C  0.46403776  0.87794327  0.03288432    -0.23000
C460        C  0.45315320  0.88729710  0.06229162    -0.23200
C461        C  0.44866844  0.91701265  0.05442056    -0.00200
H462        H  0.46372265  0.85226004  0.02900284     0.13600
H463        H  0.44398492  0.87049596  0.08525107     0.13600
C464        C  0.51646285  0.53926655  0.99771720     0.81000
N465        N  0.46741036  0.98890208  0.01243437    -0.77300
C466        C  0.48179557  0.96623649  0.01327085     0.83500
N467        N  0.51931076  0.98171870  0.01422200    -0.77200
C468        C  0.03834965  0.00974754  0.00490878     0.83500
N469        N  0.01586118  0.53332678  0.00932373    -0.79000
N470        N  0.52834066  0.57758228  0.99124552    -0.02700
C471        C  0.52104888  0.58994387  0.96177779    -0.00100
C472        C  0.54756044  0.62645180  0.95591195    -0.23000
C473        C  0.95224637  0.58866340  0.03278182    -0.23200
C474        C  0.97390950  0.57277219  0.03628396    -0.00200
H475        H  0.54709072  0.64436844  0.93602335     0.13600
H476        H  0.95341673  0.61062474  0.04822411     0.13600
N477        N  0.07767665  0.02490215  0.00837992    -0.02700
C478        C  0.09464414  0.02074847  0.03639174    -0.00100
C479        C  0.13154221  0.04795234  0.03727238    -0.23000
C480        C  0.12767631  0.56258882  0.01452459    -0.23200
C481        C  0.09486437  0.55054204  0.99673328    -0.00200
H482        H  0.15223154  0.05013090  0.05523835     0.13600
H483        H  0.15539796  0.58302931  0.00605473     0.13600
O484        O  0.21799526  0.88264356  0.29477883    -0.81000
C485        C  0.12823252  0.75941217  0.20793361     0.98300
O486        O  0.15577557  0.76493930  0.22566788    -0.70100
O487        O  0.21744803  0.82758561  0.21477656    -0.73700
Al488      Al  0.18979607  0.80439933  0.25487696     1.49000
C489        C  0.23660771  0.86177884  0.20841520     0.93600
O490        O  0.16953198  0.88277699  0.21277354    -0.79900
O491        O  0.11303572  0.83034179  0.29292545    -0.73500
Al492      Al  0.19194371  0.87943260  0.25369475     1.90100
O493        O  0.11253286  0.84016416  0.22310270    -0.72600
O494        O  0.10942603  0.76652385  0.28330235    -0.72400
O495        O  0.11295055  0.77813615  0.21374225    -0.78100
O496        O  0.16526176  0.77768806  0.29512014    -0.76300
O497        O  0.16601656  0.82985972  0.25407786    -1.12400
O498        O  0.22936770  0.83816124  0.28411747    -0.71600
C499        C  0.23561792  0.86630666  0.30120937     0.99100
C500        C  0.13552914  0.86811893  0.20601380     0.95500
Al501      Al  0.11644747  0.80587952  0.25331422     1.55600
O502        O  0.23132217  0.88410058  0.22558817    -0.76200
C503        C  0.13093106  0.76021542  0.30096226     0.99700
C504        C  0.12962325  0.86477977  0.29826236     0.94600
O505        O  0.15830240  0.88625721  0.28136433    -0.81600
N506        N  0.45385895  0.91840925  0.48624646    -0.02700
C507        C  0.46096015  0.89188310  0.49746205    -0.00100
C508        C  0.45883483  0.86977269  0.47024121    -0.23000
C509        C  0.44665887  0.88069592  0.44245933    -0.23200
C510        C  0.44280636  0.90994090  0.45320176    -0.00200
H511        H  0.45899333  0.84404378  0.47196177     0.13600
H512        H  0.43703870  0.86582813  0.41860757     0.13600
C513        C  0.03652322  0.50800966  0.49049732     0.81000
N514        N  0.02048775  0.52928344  0.49111183    -0.77300
C515        C  0.98301988  0.51345531  0.49172865     0.83500
N516        N  0.46091804  0.48819001  0.49544426    -0.77200
C517        C  0.47659577  0.95671927  0.49598817     0.83500
N518        N  0.51420997  0.97245145  0.49571464    -0.79000
N519        N  0.46463226  0.54712676  0.48830584    -0.02700
C520        C  0.43148059  0.53888943  0.50156362    -0.00100
C521        C  0.40914524  0.53963299  0.47569605    -0.23000
C522        C  0.93162594  0.53843607  0.44211752    -0.23200
C523        C  0.96661824  0.54618583  0.45166012    -0.00200
H524        H  0.38292203  0.53834727  0.47908123     0.13600
H525        H  0.92409188  0.54688946  0.41870209     0.13600
N526        N  0.07554718  0.02450734  0.48792928    -0.02700
C527        C  0.08315541  0.02187517  0.45454485    -0.00100
C528        C  0.11437003  0.05414699  0.44402185    -0.23000
C529        C  0.12294417  0.58101268  0.46817714    -0.23200
C530        C  0.10085391  0.55862731  0.49464746    -0.00200
H531        H  0.12886656  0.05871569  0.42003845     0.13600
H532        H  0.14819253  0.60776416  0.47093705     0.13600
C533        C  0.10743823  0.67407253  0.35399581    -0.04700
C534        C  0.07710343  0.66971695  0.37326534     0.09500
C535        C  0.06723560  0.69725736  0.37163915    -0.02100
C536        C  0.08621427  0.72788640  0.34944884    -0.00300
C537        C  0.11499200  0.73106759  0.32818257    -0.03900
C538        C  0.12650855  0.70471084  0.33170584     0.03100
C539        C  0.05392330  0.63518877  0.39383804     0.09900
C540        C  0.03676788  0.69353290  0.39225474     0.35800
C541        C  0.15744545  0.70836567  0.31205269     0.39200
C542        C  0.05582964  0.63616440  0.42986109    -0.04300
C543        C  0.02880223  0.60604724  0.44928462     0.02900
C544        C  0.00064138  0.57380762  0.43265473    -0.03900
C545        C  0.00179791  0.57141628  0.39663350    -0.00100
C546        C  0.02752092  0.60232532  0.37728758    -0.02700
C547        C  0.08461113  0.66907079  0.44687252     0.36600
C548        C  0.97586841  0.53738718  0.37925109     0.40200
C549        C  0.02844625  0.61013961  0.48606755     0.39300
C550        C  0.02543086  0.60110154  0.34021506     0.36200
C551        C  0.11841341  0.64643186  0.35662607     0.36900
C552        C  0.07656830  0.75658175  0.34937280     0.40200
N553        N  0.02834907  0.61409619  0.51534481    -0.37900
N554        N  0.10758649  0.69530542  0.46043289    -0.39500
N555        N  0.95540325  0.51033750  0.36510700    -0.37200
N556        N  0.02372847  0.60032734  0.31064639    -0.39600
N557        N  0.01253704  0.69055260  0.40878765    -0.39400
N558        N  0.06868390  0.77932497  0.34991032    -0.37000
N559        N  0.18255698  0.71131750  0.29704420    -0.38100
N560        N  0.12700957  0.62426293  0.35869170    -0.39700
C561        C  0.07717436  0.93222000  0.42831896    -0.04700
C562        C  0.07559358  0.93483808  0.39241038     0.09500
C563        C  0.06672395  0.96032431  0.37817596    -0.02100
C564        C  0.06435117  0.98626965  0.39936689    -0.00300
C565        C  0.07026983  0.98660245  0.43508526    -0.03900
C566        C  0.07381666  0.95755775  0.44969292     0.03100
C567        C  0.08874568  0.91502265  0.36962351     0.09900
C568        C  0.06268180  0.96156370  0.34140646     0.35800
C569        C  0.07719928  0.95542082  0.48642797     0.39200
C570        C  0.06352796  0.88305795  0.35122692    -0.04300
C571        C  0.07662044  0.86651284  0.32791036     0.02900
C572        C  0.11524625  0.88078258  0.32405834    -0.03900
C573        C  0.14030951  0.91197747  0.34380234    -0.00100
C574        C  0.12715122  0.92953444  0.36558667    -0.02700
C575        C  0.02406634  0.86753739  0.35608745     0.36600
C576        C  0.17981927  0.92586163  0.34257048     0.40200
C577        C  0.05020005  0.83608012  0.30669051     0.39300
C578        C  0.15330773  0.96332687  0.38333897     0.36200
C579        C  0.08499296  0.90509092  0.44301357     0.36900
C580        C  0.05869970  0.01453675  0.38399426     0.40200
N581        N  0.02906510  0.81191010  0.28967917    -0.37900
N582        N  0.99259012  0.85515894  0.36013729    -0.39500
N583        N  0.21139196  0.93718200  0.34207818    -0.37200
N584        N  0.17409869  0.99040188  0.39732010    -0.39600
N585        N  0.05932916  0.96241980  0.31207487    -0.39400
N586        N  0.05481866  0.03735818  0.37142111    -0.37000
N587        N  0.07969287  0.95344986  0.51576328    -0.38100
N588        N  0.09144931  0.88352760  0.45457208    -0.39700
C589        C  0.29925152  0.86758567  0.37187426    -0.04700
C590        C  0.32583064  0.90573936  0.37415071     0.09500
C591        C  0.32059606  0.93142912  0.35528938    -0.02100
C592        C  0.29048872  0.91888355  0.33221039    -0.00300
C593        C  0.26479502  0.88038626  0.32846309    -0.03900
C594        C  0.26867367  0.85501454  0.34958161     0.03100
C595        C  0.36012220  0.91797693  0.39520623     0.09900
C596        C  0.34648952  0.97077693  0.35955917     0.35800
C597        C  0.24088960  0.81585184  0.34914278     0.39200
C598        C  0.39321029  0.92497207  0.37924387    -0.04300
C599        C  0.42245102  0.92699451  0.39897527     0.02900
C600        C  0.41828178  0.92064898  0.43467540    -0.03900
C601        C  0.38653390  0.91748617  0.45091594    -0.00100
C602        C  0.35804358  0.91707301  0.43118419    -0.02700
C603        C  0.39631976  0.92805341  0.34228510     0.36600
C604        C  0.38082773  0.91072727  0.48736747     0.40200
C605        C  0.45626954  0.93401136  0.38228702     0.39300
C606        C  0.32538430  0.91343136  0.44768035     0.36200
C607        C  0.30378871  0.84104740  0.39215278     0.36900
C608        C  0.28713575  0.94575315  0.31147308     0.40200
N609        N  0.48319718  0.93958721  0.36887463    -0.37900
N610        N  0.39875775  0.93064453  0.31279871    -0.39500
N611        N  0.37538786  0.90479910  0.51633900    -0.37200
N612        N  0.29937186  0.91065459  0.46079377    -0.39600
N613        N  0.36711548  0.00215243  0.36319373    -0.39400
N614        N  0.28457915  0.96747674  0.29522460    -0.37000
N615        N  0.21896459  0.78454547  0.34941436    -0.38100
N616        N  0.30741992  0.81998679  0.40843197    -0.39700
C617        C  0.08544538  0.93258694  0.07053396    -0.04700
C618        C  0.08596256  0.93889042  0.10599890     0.09500
C619        C  0.08035022  0.96742109  0.11786814    -0.02100
C620        C  0.07774294  0.99167664  0.09436572    -0.00300
C621        C  0.08075692  0.98758729  0.05885960    -0.03900
C622        C  0.08315638  0.95701401  0.04700534     0.03100
C623        C  0.09817185  0.91945757  0.13046040     0.09900
C624        C  0.08035080  0.97361830  0.15435423     0.35800
C625        C  0.08860998  0.95366235  0.01088777     0.39200
C626        C  0.13625110  0.93430633  0.13668996    -0.04300
C627        C  0.14852716  0.91699874  0.16003504     0.02900
C628        C  0.12253739  0.88476419  0.17865359    -0.03900
C629        C  0.08400201  0.86975950  0.17158929    -0.00100
C630        C  0.07220079  0.88684774  0.14736888    -0.02700
C631        C  0.16299729  0.96800268  0.11906702     0.36600
C632        C  0.05579457  0.83691942  0.18911689     0.40200
C633        C  0.18822897  0.93315313  0.16436200     0.39300
C634        C  0.03311133  0.87096301  0.13969246     0.36200
C635        C  0.09060314  0.90284639  0.05839666     0.36900
C636        C  0.07575285  0.02313204  0.10685503     0.40200
N637        N  0.21994193  0.94629002  0.16752129    -0.37900
N638        N  0.18420310  0.99489302  0.10505529    -0.39500
N639        N  0.03304483  0.81075924  0.20297231    -0.37200
N640        N  0.00199728  0.85834680  0.13332728    -0.39600
N641        N  0.08054707  0.97857142  0.18348618    -0.39400
N642        N  0.07461117  0.04840771  0.11705218    -0.37000
N643        N  0.09373289  0.95107296  0.98223356    -0.38100
N644        N  0.09485697  0.87914586  0.04887898    -0.39700
C645        C  0.06487134  0.63978398  0.07669649    -0.04700
C646        C  0.05357106  0.63697855  0.11107587     0.09500
C647        C  0.01931826  0.60647521  0.12146102    -0.02100
C648        C  0.99486395  0.58118789  0.09687642    -0.00300
C649        C  0.00421160  0.58695958  0.06183858    -0.03900
C650        C  0.03984203  0.61545017  0.05193516     0.03100
C651        C  0.07481917  0.66912324  0.13476440     0.09900
C652        C  0.00804735  0.60288698  0.15696337     0.35800
C653        C  0.04853394  0.62312000  0.01590580     0.39200
C654        C  0.07097041  0.70056002  0.13176044    -0.04300
C655        C  0.09021928  0.73092522  0.15411953     0.02900
C656        C  0.11263816  0.72972102  0.18083900    -0.03900
C657        C  0.11833760  0.69896714  0.18206362    -0.00100
C658        C  0.09899683  0.66867170  0.15949717    -0.02700
C659        C  0.04660651  0.70139000  0.10572295     0.36600
C660        C  0.14458552  0.69819210  0.20572406     0.40200
C661        C  0.08818439  0.76406274  0.14818116     0.39300
C662        C  0.10361709  0.63667318  0.16183070     0.36200
C663        C  0.10114435  0.66971715  0.06654389     0.36900
C664        C  0.50604987  0.57682301  0.06317823     0.40200
N665        N  0.08679065  0.79055273  0.14310254    -0.37900
N666        N  0.02714001  0.70191510  0.08495292    -0.39500
N667        N  0.16602297  0.69729310  0.22378516    -0.37200
N668        N  0.10709147  0.61103583  0.16373924    -0.39600
N669        N  0.99905967  0.60012694  0.18529698    -0.39400
N670        N  0.47521548  0.55376205  0.06104654    -0.37000
N671        N  0.05471642  0.62954191  0.98708147    -0.38100
N672        N  0.13016880  0.69369760  0.05873837    -0.39700
C673        C  0.36172853  0.91879967  0.07933017    -0.04700
C674        C  0.36199877  0.91404570  0.11499544     0.09500
C675        C  0.39418130  0.91847846  0.13095423    -0.02100
C676        C  0.42466323  0.92424957  0.11106659    -0.00300
C677        C  0.42294784  0.92458493  0.07487164    -0.03900
C678        C  0.39200062  0.92405684  0.05919650     0.03100
C679        C  0.32760880  0.90173029  0.13571093     0.09900
C680        C  0.39510093  0.91501514  0.16785897     0.35800
C681        C  0.38938809  0.92583848  0.02232444     0.39200
C682        C  0.29889414  0.86429780  0.13510938    -0.04300
C683        C  0.26834653  0.85150911  0.15748433     0.02900
C684        C  0.26651070  0.87608298  0.18145184    -0.03900
C685        C  0.29441771  0.91439857  0.17991290    -0.00100
C686        C  0.32457855  0.92689976  0.15717166    -0.02700
C687        C  0.30109484  0.83875070  0.11154506     0.36600
C688        C  0.29305097  0.94166954  0.20163763     0.40200
C689        C  0.23877107  0.81305525  0.15499893     0.39300
C690        C  0.35290268  0.96590785  0.15597894     0.36200
C691        C  0.32916631  0.91607857  0.06332103     0.36900
C692        C  0.45712687  0.92799382  0.12807370     0.40200
N693        N  0.21526835  0.78238923  0.15281554    -0.37900
N694        N  0.30283992  0.81854997  0.09255934    -0.39500
N695        N  0.29225918  0.96390969  0.21849003    -0.37200
N696        N  0.37529414  0.99706228  0.15515086    -0.39600
N697        N  0.39574371  0.91221990  0.19728289    -0.39400
N698        N  0.48257419  0.93034905  0.14204649    -0.37000
N699        N  0.38705336  0.92711242  0.99289049    -0.38100
N700        N  0.30290205  0.91357348  0.05087355    -0.39700
C701        C  0.10658724  0.54147930  0.90340753    -0.04700
C702        C  0.13478071  0.57827714  0.89687726     0.09500
C703        C  0.13911197  0.60675560  0.91888802    -0.02100
C704        C  0.11994583  0.59784272  0.95022875    -0.00300
C705        C  0.09628682  0.56028427  0.95970143    -0.03900
C706        C  0.08658009  0.53256019  0.93445870     0.03100
C707        C  0.16375895  0.58682051  0.87036893     0.09900
C708        C  0.16607178  0.64502783  0.91069233     0.35800
C709        C  0.05821589  0.49446153  0.94093414     0.39200
C710        C  0.15964293  0.59632539  0.83674167    -0.04300
C711        C  0.18940049  0.60931720  0.81341534     0.02900
C712        C  0.22361748  0.61302275  0.82374727    -0.03900
C713        C  0.22731483  0.60273339  0.85733633    -0.00100
C714        C  0.19730290  0.58911992  0.88031610    -0.02700
C715        C  0.12483452  0.59301520  0.82639210     0.36600
C716        C  0.26276583  0.60854255  0.86909330     0.40200
C717        C  0.18459212  0.61870665  0.77876065     0.39300
C718        C  0.20107328  0.57806614  0.91462124     0.36200
C719        C  0.10019588  0.51249866  0.87936900     0.36900
C720        C  0.12837562  0.62717816  0.97454589     0.40200
N721        N  0.18076269  0.62634863  0.75117893    -0.37900
N722        N  0.09695229  0.59019500  0.81821811    -0.39500
N723        N  0.29119109  0.61363464  0.87850766    -0.37200
N724        N  0.20387043  0.56905349  0.94195142    -0.39600
N725        N  0.18771497  0.67547065  0.90404854    -0.39400
N726        N  0.13590080  0.65086576  0.99385223    -0.37000
N727        N  0.03533125  0.46383218  0.94495528    -0.38100
N728        N  0.09508276  0.48930499  0.86026092    -0.39700
C729        C  0.21291337  0.63182054  0.62332798    -0.04700
C730        C  0.18284600  0.59505556  0.62262587     0.09500
C731        C  0.17737980  0.57114274  0.65021430    -0.02100
C732        C  0.20189827  0.58379100  0.67844655    -0.00300
C733        C  0.23341151  0.62031237  0.67869473    -0.03900
C734        C  0.23853322  0.64424181  0.65066513     0.03100
C735        C  0.15894825  0.58089567  0.59127991     0.09900
C736        C  0.14678196  0.53311127  0.64911584     0.35800
C737        C  0.27077783  0.68133018  0.64874780     0.39200
C738        C  0.17245851  0.57192411  0.56215671    -0.04300
C739        C  0.15207897  0.56207129  0.53140038     0.02900
C740        C  0.11828524  0.56224174  0.52906443    -0.03900
C741        C  0.10331853  0.56809153  0.55915514    -0.00100
C742        C  0.12369627  0.57750457  0.59014270    -0.02700
C743        C  0.20790130  0.57358277  0.56378460     0.36600
C744        C  0.06709575  0.56444617  0.55876758     0.40200
C745        C  0.16617733  0.55167678  0.50220734     0.39300
C746        C  0.10873167  0.58432885  0.62081902     0.36200
C747        C  0.21775743  0.65679118  0.59535730     0.36900
C748        C  0.19388065  0.55896166  0.70729487     0.40200
N749        N  0.17757091  0.54338080  0.47907661    -0.37900
N750        N  0.23623618  0.57512364  0.56521469    -0.39500
N751        N  0.03801513  0.56121089  0.55994490    -0.37200
N752        N  0.09670430  0.58954294  0.64537008    -0.39600
N753        N  0.12240880  0.50277266  0.64811796    -0.39400
N754        N  0.18738099  0.53911545  0.73028729    -0.37000
N755        N  0.29639251  0.71092334  0.64695569    -0.38100
N756        N  0.22151238  0.67666181  0.57307851    -0.39700
C757        C  0.43350986  0.61912573  0.85889610    -0.04700
C758        C  0.41178300  0.58468834  0.87532194     0.09500
C759        C  0.37346485  0.56364261  0.86859323    -0.02100
C760        C  0.35668508  0.57736821  0.84601165    -0.00300
C761        C  0.37854145  0.61181665  0.82887884    -0.03900
C762        C  0.41745751  0.63199335  0.83496306     0.03100
C763        C  0.43010181  0.57214804  0.90062068     0.09900
C764        C  0.35143670  0.52789761  0.88508723     0.35800
C765        C  0.44187525  0.66564054  0.81607257     0.39200
C766        C  0.43099179  0.58124980  0.93543379    -0.04300
C767        C  0.45822071  0.58208763  0.95731401     0.02900
C768        C  0.48456084  0.57361180  0.94443129    -0.03900
C769        C  0.48100512  0.56058526  0.91062004    -0.00100
C770        C  0.45347114  0.55939164  0.88884917    -0.02700
C771        C  0.40649190  0.59365672  0.94777143     0.36600
C772        C  0.98962528  0.55586166  0.93416988     0.40200
C773        C  0.46239658  0.59700381  0.99155751     0.39300
C774        C  0.45120092  0.54819272  0.85344943     0.36200
C775        C  0.47268157  0.64181114  0.86718775     0.36900
C776        C  0.31683381  0.55622870  0.84129745     0.40200
N777        N  0.46571691  0.60970568  0.01850217    -0.37900
N778        N  0.38703531  0.60366562  0.95758316    -0.39500
N779        N  0.02056184  0.56480066  0.93694093    -0.37200
N780        N  0.44927518  0.53921601  0.82518933    -0.39600
N781        N  0.33404784  0.49932338  0.89823803    -0.39400
N782        N  0.28499810  0.53928953  0.83769117    -0.37000
N783        N  0.46166477  0.69259048  0.80134798    -0.38100
N784        N  0.50378433  0.65989698  0.87405873    -0.39700
C785        C  0.36191403  0.57710107  0.62902775    -0.04700
C786        C  0.39811820  0.58301875  0.63012908     0.09500
C787        C  0.42078802  0.60031296  0.65875536    -0.02100
C788        C  0.40744286  0.61201296  0.68624849    -0.00300
C789        C  0.37163435  0.60791790  0.68466120    -0.03900
C790        C  0.34882520  0.58991022  0.65574806     0.03100
C791        C  0.41307630  0.57389939  0.59941819     0.09900
C792        C  0.45828407  0.60688772  0.65940945     0.35800
C793        C  0.31249293  0.58596726  0.65213323     0.39200
C794        C  0.42592732  0.59872247  0.57163754    -0.04300
C795        C  0.43315056  0.58768008  0.54006486     0.02900
C796        C  0.42898372  0.55200619  0.53640188    -0.03900
C797        C  0.42086768  0.52924763  0.56565388    -0.00100
C798        C  0.41171495  0.53967302  0.59682818    -0.02700
C799        C  0.43085056  0.63543685  0.57548458     0.34600
C800        C  0.42248338  0.49559245  0.56433941     0.40200
C801        C  0.44423414  0.61309267  0.51126150     0.39300
C802        C  0.39990765  0.51484230  0.62602428     0.36200
C803        C  0.33843044  0.55857974  0.59965093     0.36900
C804        C  0.43067810  0.62751318  0.71627387     0.40200
N805        N  0.95154382  0.61887980  0.48294631    -0.37900
N806        N  0.43497801  0.66475234  0.57875027    -0.39500
N807        N  0.42449818  0.46905874  0.56489504    -0.37200
N808        N  0.39037940  0.49501396  0.64932500    -0.39600
N809        N  0.48823727  0.61226539  0.65979148    -0.39400
N810        N  0.44953766  0.63968116  0.74007363    -0.37000
N811        N  0.28354332  0.58276536  0.64892823    -0.38100
N812        N  0.31984051  0.54379622  0.57619008    -0.39700
C813        C  0.40414472  0.81860918  0.65480146    -0.04700
C814        C  0.41239546  0.80694420  0.62397179     0.09500
C815        C  0.40754812  0.77110924  0.62190507    -0.02100
C816        C  0.39301134  0.74654240  0.64992559    -0.00300
C817        C  0.38519076  0.75829326  0.68111903    -0.03900
C818        C  0.39179561  0.79486990  0.68359074     0.03100
C819        C  0.42430965  0.83147815  0.59293778     0.09900
C820        C  0.41717121  0.75935308  0.59064780     0.35800
C821        C  0.38778469  0.80896466  0.71608003     0.39200
C822        C  0.46082185  0.86191752  0.59001426    -0.04300
C823        C  0.47236451  0.88335736  0.55966097     0.02900
C824        C  0.44785032  0.87378924  0.53164973    -0.03900
C825        C  0.41080550  0.84391738  0.53520878    -0.00100
C826        C  0.39908552  0.82330387  0.56582038    -0.02700
C827        C  0.48678346  0.87046823  0.61794961     0.36600
C828        C  0.38475237  0.83329177  0.50697493     0.40200
C829        C  0.50951472  0.91501342  0.55742078     0.39300
C830        C  0.36107786  0.79300441  0.56925218     0.36200
C831        C  0.40762330  0.85482361  0.65659159     0.36900
C832        C  0.38447148  0.70858909  0.64583867     0.40200
N833        N  0.53917244  0.94052553  0.55666482    -0.37900
N834        N  0.50742921  0.87720465  0.64029241    -0.39500
N835        N  0.36390558  0.82443686  0.48450165    -0.37200
N836        N  0.33083461  0.76878656  0.57204345    -0.39600
N837        N  0.42490349  0.74998092  0.56576082    -0.39400
N838        N  0.37748063  0.67831112  0.64220479    -0.37000
N839        N  0.38548524  0.82101184  0.74191920    -0.38100
N840        N  0.41020911  0.88364337  0.65781933    -0.39700
C841        C  0.39594805  0.83516599  0.94154454    -0.04700
C842        C  0.41913760  0.84133203  0.91325265     0.09500
C843        C  0.45665452  0.86982613  0.91466639    -0.02100
C844        C  0.47174110  0.88970700  0.94534099    -0.00300
C845        C  0.44863063  0.88400572  0.97364650    -0.03900
C846        C  0.41030848  0.85689407  0.97128910     0.03100
C847        C  0.40529253  0.81424015  0.88422721     0.09900
C848        C  0.47996235  0.87761237  0.88482393     0.35800
C849        C  0.38603864  0.84855596  0.00054868     0.39200
C850        C  0.38091322  0.81458160  0.85949155    -0.04300
C851        C  0.36571917  0.78697633  0.83389179     0.02900
C852        C  0.37571249  0.75939274  0.83224937    -0.03900
C853        C  0.39962104  0.75882228  0.85756055    -0.00100
C854        C  0.41440813  0.78616063  0.88328253    -0.02700
C855        C  0.37154861  0.84345025  0.86047330     0.36600
C856        C  0.40693111  0.72859140  0.85908775     0.40200
C857        C  0.33962194  0.78698830  0.80945795     0.39300
C858        C  0.43836865  0.78487818  0.90950415     0.36200
C859        C  0.35781090  0.80466712  0.94087702     0.36900
C860        C  0.51148479  0.91259266  0.94887872     0.40200
N861        N  0.31852152  0.78683231  0.79018664    -0.37900
N862        N  0.36415657  0.86654781  0.86129611    -0.39500
N863        N  0.41284016  0.70458423  0.86167401    -0.37200
N864        N  0.45751235  0.78398167  0.93041063    -0.39600
N865        N  0.49835023  0.88396313  0.86082530    -0.39400
N866        N  0.54338686  0.92975105  0.95142888    -0.37000
N867        N  0.36634513  0.84116120  0.02371219    -0.38100
N868        N  0.32752242  0.78016273  0.94041522    -0.39700
O869        O  0.88244541  0.16210862  0.79664767    -0.81000
C870        C  0.76281336  0.14207878  0.71055980     0.98300
O871        O  0.76595973  0.11846114  0.72789542    -0.70100
O872        O  0.82346202  0.11102879  0.71711415    -0.73700
Al873      Al  0.80289492  0.11950119  0.75701132     1.49000
C874        C  0.85722629  0.12348810  0.71052965     0.93600
O875        O  0.89096708  0.21542118  0.71516294    -0.79900
O876        O  0.84267314  0.22724236  0.79229560    -0.73500
Al877      Al  0.88306121  0.18753542  0.75585823     1.90100
O878        O  0.85112353  0.23378924  0.72266820    -0.72600
O879        O  0.77559755  0.17125562  0.78494437    -0.72400
O880        O  0.78498271  0.17604968  0.71547436    -0.78100
O881        O  0.77813527  0.12149766  0.79702190    -0.76300
O882        O  0.83379275  0.16884196  0.75566586    -1.12400
O883        O  0.83260055  0.10875093  0.78640307    -0.71600
C884        C  0.86216086  0.12798369  0.80298126     0.99100
C885        C  0.87808071  0.23566665  0.70664232     0.95500
Al886      Al  0.81537264  0.19929435  0.75403013     1.55600
O887        O  0.88196164  0.15034862  0.72739032    -0.76200
C888        C  0.76522698  0.14241597  0.80265584     0.99700
C889        C  0.87643290  0.24062022  0.79919783     0.94600
O890        O  0.89515922  0.22917013  0.78406509    -0.81600
N891        N  0.93906388  0.42065277  0.01532966    -0.02700
C892        C  0.94013452  0.39240815  0.99954337    -0.00100
C893        C  0.91605482  0.35911782  0.01540224    -0.23000
C894        C  0.89938862  0.36692130  0.04144598    -0.23200
C895        C  0.91372687  0.40472076  0.04072037    -0.00200
H896        H  0.90901000  0.33157196  0.00701601     0.13600
H897        H  0.87742424  0.34698978  0.05779573     0.13600
C898        C  0.98710649  0.01879122  0.00794934     0.81000
N899        N  0.95386240  0.48454854  0.01068371    -0.77300
C900        C  0.96533942  0.45950628  0.01121174     0.83500
N901        N  0.00224506  0.47160998  0.01108056    -0.77200
C902        C  0.53091359  0.49158605  0.99809162     0.83500
N903        N  0.52730824  0.04144123  0.01306649    -0.79000
N904        N  0.97282886  0.04294354  0.01522190    -0.02700
C905        C  0.94088499  0.03951526  0.00244459    -0.00100
C906        C  0.92831410  0.05679828  0.02425407    -0.23000
C907        C  0.44896144  0.07691447  0.04726677    -0.23200
C908        C  0.47679555  0.06860614  0.04585901    -0.00200
H909        H  0.90568993  0.06168940  0.01959976     0.13600
H910        H  0.44568953  0.09376907  0.06619273     0.13600
N911        N  0.55733540  0.47970312  0.99349322    -0.02700
C912        C  0.55749037  0.45109056  0.00993143    -0.00100
C913        C  0.58065213  0.44179683  0.99309066    -0.23000
C914        C  0.64119979  0.07936710  0.02559157    -0.23200
C915        C  0.60944530  0.06766097  0.00596768    -0.00200
H916        H  0.58828956  0.42188767  0.00133999     0.13600
H917        H  0.66867790  0.10213711  0.02015768     0.13600
O918        O  0.71448414  0.39055067  0.29750579    -0.81000
C919        C  0.61851692  0.26316605  0.21764135     0.98300
O920        O  0.64849461  0.27097381  0.23210282    -0.70100
O921        O  0.70768892  0.33303213  0.21682927    -0.73700
Al922      Al  0.68427722  0.31088705  0.25885985     1.49000
C923        C  0.72766890  0.36713633  0.21069513     0.93600
O924        O  0.65862486  0.38509130  0.21815539    -0.79900
O925        O  0.61196332  0.33731996  0.30504394    -0.73500
Al926      Al  0.68514384  0.38509377  0.25793328     1.90100
O927        O  0.60293026  0.34338012  0.23569910    -0.72600
O928        O  0.60719644  0.27297266  0.29437630    -0.72400
O929        O  0.60265763  0.28096651  0.22535324    -0.78100
O930        O  0.66394091  0.28466675  0.30037091    -0.76300
O931        O  0.65994355  0.33548124  0.26063871    -1.12400
O932        O  0.72546814  0.34582877  0.28556112    -0.71600
C933        C  0.73236629  0.37414916  0.30271176     0.99100
C934        C  0.62374886  0.36933287  0.21554447     0.95500
Al935      Al  0.61056239  0.31087231  0.26478780     1.55600
O936        O  0.72366266  0.38997285  0.22829552    -0.76200
C937        C  0.63037908  0.26685187  0.30909297     0.99700
C938        C  0.62796567  0.37211432  0.30774755     0.94600
O939        O  0.65314974  0.39256406  0.28698564    -0.81600
N940        N  0.95487646  0.41611197  0.47861371    -0.02700
C941        C  0.96212396  0.38993024  0.49030747    -0.00100
C942        C  0.95982884  0.36736487  0.46340322    -0.23000
C943        C  0.94769281  0.37798825  0.43532969    -0.23200
C944        C  0.94389267  0.40742040  0.44556004    -0.00200
H945        H  0.96005717  0.34168848  0.46552002     0.13600
H946        H  0.93790578  0.36266783  0.41160784     0.13600
C947        C  0.53674299  0.00992878  0.49586767     0.81000
N948        N  0.52132342  0.03169534  0.49507421    -0.77300
C949        C  0.48407030  0.01673574  0.49577503     0.83500
N950        N  0.96424504  0.98815280  0.50142724    -0.77200
C951        C  0.97690668  0.45422869  0.48879520     0.83500
N952        N  0.01446488  0.47060836  0.48849668    -0.79000
N953        N  0.97516619  0.04949651  0.49097798    -0.02700
C954        C  0.94151889  0.04166334  0.50324687    -0.00100
C955        C  0.91804308  0.03770252  0.47648274    -0.23000
C956        C  0.43552976  0.04434074  0.44410696    -0.23200
C957        C  0.46964608  0.04970475  0.45377698    -0.00200
H958        H  0.89102541  0.03479607  0.47869718     0.13600
H959        H  0.42901007  0.05347028  0.42047187     0.13600
N960        N  0.57462901  0.54126863  0.48778531    -0.02700
C961        C  0.58303391  0.54074082  0.45440724    -0.00100
C962        C  0.60711965  0.57622148  0.44281683    -0.23000
C963        C  0.62302889  0.08382726  0.47666660    -0.23200
C964        C  0.60026261  0.05999171  0.50201831    -0.00200
H965        H  0.62130158  0.58378943  0.41850993     0.13600
H966        H  0.64752320  0.11067626  0.48054816     0.13600
C967        C  0.61316666  0.18059972  0.35879808    -0.04700
C968        C  0.58150828  0.17288982  0.37780774     0.09500
C969        C  0.56950020  0.19882256  0.37804179    -0.02100
C970        C  0.58740863  0.23096750  0.35760816    -0.00300
C971        C  0.61700622  0.23718661  0.33588408    -0.03900
C972        C  0.63111490  0.21277983  0.33808873     0.03100
C973        C  0.55980280  0.13733521  0.39734928     0.09900
C974        C  0.53810602  0.19205084  0.39901735     0.35800
C975        C  0.66395524  0.22039511  0.31919631     0.39200
C976        C  0.56129562  0.13768064  0.43333640    -0.04300
C977        C  0.53325049  0.10794737  0.45228915     0.02900
C978        C  0.50449491  0.07644723  0.43521145    -0.03900
C979        C  0.50621524  0.07430542  0.39917950    -0.00100
C980        C  0.53334088  0.10489773  0.38030678    -0.02700
C981        C  0.59040943  0.17002644  0.45077555     0.36600
C982        C  0.47917302  0.04115606  0.38127823     0.40200
C983        C  0.53222567  0.11236310  0.48894371     0.39300
C984        C  0.53305030  0.10371314  0.34321277     0.36200
C985        C  0.62694183  0.15512914  0.36037300     0.36900
C986        C  0.57603463  0.25826653  0.36011452     0.40200
N987        N  0.53175411  0.11695843  0.51806303    -0.37900
N988        N  0.61364636  0.19583078  0.46463240    -0.39500
N989        N  0.45766712  0.01485970  0.36676116    -0.37200
N990        N  0.53304329  0.10281385  0.31362218    -0.39600
N991        N  0.51319296  0.18664088  0.41588832    -0.39400
N992        N  0.56692481  0.27996108  0.36279533    -0.37000
N993        N  0.69064652  0.22673509  0.30480662    -0.38100
N994        N  0.63789367  0.13476911  0.36167200    -0.39700
C995        C  0.59285141  0.45697959  0.43531576    -0.04700
C996        C  0.58584179  0.45294001  0.39987761     0.09500
C997        C  0.57393499  0.47492752  0.38314860    -0.02100
C998        C  0.56982713  0.50147537  0.40166078    -0.00300
C999        C  0.57920094  0.50738158  0.43679109    -0.03900
C1000       C  0.59059925  0.48473992  0.45355928     0.03100
C1001       C  0.59652730  0.42984619  0.37924392     0.09900
C1002       C  0.56782295  0.47149939  0.34643621     0.35800
C1003       C  0.60441867  0.49258330  0.48838973     0.39200
C1004       C  0.56961842  0.39437624  0.36755769    -0.04300
C1005       C  0.57967140  0.37477348  0.34484027     0.02900
C1006       C  0.61719069  0.39007313  0.33473557    -0.03900
C1007       C  0.64442111  0.42462081  0.34876615    -0.00100
C1008       C  0.63395940  0.44463748  0.37022618    -0.02700
C1009       C  0.53152380  0.37830267  0.37876598     0.36600
C1010       C  0.68351455  0.43997224  0.34151932     0.40200
C1011       C  0.55085481  0.34004973  0.33048968     0.39300
C1012       C  0.66173730  0.48109737  0.38254001     0.36200
C1013       C  0.60498811  0.43420197  0.45246017     0.36900
C1014       C  0.55757017  0.52385794  0.38406399     0.40200
N1015       N  0.52763428  0.31248769  0.31897260    -0.37900
N1016       N  0.50119469  0.36533729  0.38796165    -0.39500
N1017       N  0.71480240  0.45272349  0.33603805    -0.37200
N1018       N  0.68376029  0.51016867  0.39236803    -0.39600
N1019       N  0.56289277  0.46859609  0.31717484    -0.39400
N1020       N  0.54807545  0.54177995  0.36970219    -0.37000
N1021       N  0.61632671  0.49892736  0.51589852    -0.38100
N1022       N  0.61480573  0.41613593  0.46608308    -0.39700
C1023       C  0.79546316  0.37143594  0.37056492    -0.04700
C1024       C  0.82611579  0.40800488  0.36953465     0.09500
C1025       C  0.82383798  0.43496534  0.34957792    -0.02100
C1026       C  0.79265133  0.42455209  0.32827836    -0.00300
C1027       C  0.76243207  0.38765959  0.32877091    -0.03900
C1028       C  0.76316704  0.36197638  0.35176812     0.03100
C1029       C  0.86049713  0.41727087  0.38947576     0.09900
C1030       C  0.85361334  0.47329494  0.35095772     0.35800
C1031       C  0.73014401  0.32618443  0.35746232     0.39200
C1032       C  0.89243973  0.42227706  0.37252995    -0.04300
C1033       C  0.92170754  0.42312493  0.39139570     0.02900
C1034       C  0.91864258  0.41739581  0.42723907    -0.03900
C1035       C  0.88757395  0.41485658  0.44428868    -0.00100
C1036       C  0.85931242  0.41591291  0.42552498    -0.02700
C1037       C  0.89441683  0.42475164  0.33549241     0.36600
C1038       C  0.88215725  0.40720159  0.48064580     0.40200
C1039       C  0.95454222  0.42879793  0.37367398     0.39300
C1040       C  0.82749521  0.41296888  0.44318467     0.36200
C1041       C  0.79741358  0.34304082  0.39029193     0.36900
C1042       C  0.79252091  0.45132614  0.30480066     0.40200
N1043       N  0.98065647  0.43337549  0.35934253    -0.37900
N1044       N  0.89600411  0.42689291  0.30595122    -0.39500
N1045       N  0.87695673  0.40057201  0.50953689    -0.37200
N1046       N  0.80200419  0.41034982  0.45722819    -0.39600
N1047       N  0.87724595  0.50395293  0.35231249    -0.39400
N1048       N  0.79250603  0.47265214  0.28592401    -0.37000
N1049       N  0.70401954  0.29787910  0.36340487    -0.38100
N1050       N  0.79892863  0.32032438  0.40588928    -0.39700
C1051       C  0.53306122  0.38592674  0.08367279    -0.04700
C1052       C  0.55419482  0.41173107  0.10931316     0.09500
C1053       C  0.56406046  0.44912128  0.10517858    -0.02100
C1054       C  0.55814584  0.46159203  0.07343134    -0.00300
C1055       C  0.54415749  0.43696072  0.04529894    -0.03900
C1056       C  0.52862726  0.39853697  0.05152090     0.03100
C1057       C  0.57171147  0.40089403  0.13708329     0.09900
C1058       C  0.58296924  0.47528968  0.13267443     0.35800
C1059       C  0.51237603  0.37241957  0.02357907     0.39200
C1060       C  0.60174821  0.39590252  0.12888384    -0.04300
C1061       C  0.61889070  0.38586339  0.15444676     0.02900
C1062       C  0.60653377  0.38119060  0.18868005    -0.03900
C1063       C  0.57679116  0.38677545  0.19694272    -0.00100
C1064       C  0.55922948  0.39617858  0.17116952    -0.02700
C1065       C  0.61504393  0.40112875  0.09389239     0.36600
C1066       C  0.56507057  0.38433739  0.23219311     0.40200
C1067       C  0.64842619  0.37909621  0.14514966     0.39300
C1068       C  0.52823989  0.40093986  0.17963398     0.36200
C1069       C  0.51884278  0.34674345  0.08946105     0.36900
C1070       C  0.56928912  0.50026358  0.06945618     0.40200
N1071       N  0.67190178  0.37360061  0.13768472    -0.37900
N1072       N  0.62541782  0.40522856  0.06592544    -0.39500
N1073       N  0.55573348  0.38273961  0.26027997    -0.37200
N1074       N  0.50355552  0.40482590  0.18634663    -0.39600
N1075       N  0.59798657  0.49611443  0.15467838    -0.39400
N1076       N  0.57777395  0.53115317  0.06736196    -0.37000
N1077       N  0.50034074  0.35162274  0.00115257    -0.38100
N1078       N  0.50745135  0.31548406  0.09413346    -0.39700
C1079       C  0.56170991  0.14796360  0.08426009    -0.04700
C1080       C  0.55178020  0.14121071  0.11909080     0.09500
C1081       C  0.52331357  0.10569213  0.12942852    -0.02100
C1082       C  0.50262838  0.07840263  0.10462944    -0.00300
C1083       C  0.50887403  0.08716537  0.06949083    -0.03900
C1084       C  0.53972000  0.12142522  0.05940882     0.03100
C1085       C  0.56910065  0.17250058  0.14424183     0.09900
C1086       C  0.51347857  0.09820335  0.16529682     0.35800
C1087       C  0.54598496  0.13174135  0.02360279     0.39200
C1088       C  0.55965948  0.20040567  0.14364826    -0.04300
C1089       C  0.57613084  0.23028383  0.16694848     0.02900
C1090       C  0.60185704  0.23223837  0.19182266    -0.03900
C1091       C  0.61146538  0.20406509  0.19181669    -0.00100
C1092       C  0.59511334  0.17454482  0.16820298    -0.02700
C1093       C  0.53270890  0.19823949  0.11891466     0.36600
C1094       C  0.63814961  0.20466201  0.21588715     0.40200
C1095       C  0.56724927  0.25947767  0.16416982     0.39300
C1096       C  0.60501468  0.14597533  0.16850115     0.36200
C1097       C  0.59285828  0.18347867  0.07386291     0.36900
C1098       C  0.98852084  0.04270056  0.11277730     0.40200
N1099       N  0.56015345  0.28272858  0.16181769    -0.37900
N1100       N  0.51130738  0.19650560  0.09910184    -0.39500
N1101       N  0.65970053  0.20476203  0.23450579    -0.37200
N1102       N  0.61264506  0.12303275  0.16882877    -0.39600
N1103       N  0.50566070  0.09241028  0.19393992    -0.39400
N1104       N  0.96516900  0.01563233  0.12484041    -0.37000
N1105       N  0.55139387  0.14129516  0.99535462    -0.38100
N1106       N  0.61763374  0.21186450  0.06562878    -0.39700
C1107       C  0.83792107  0.41763156  0.07412760    -0.04700
C1108       C  0.84641531  0.42100028  0.10936863     0.09500
C1109       C  0.88232798  0.43014704  0.12001134    -0.02100
C1110       C  0.90747591  0.43011655  0.09613313    -0.00300
C1111       C  0.89712764  0.42204350  0.06149408    -0.03900
C1112       C  0.86337904  0.41837340  0.05018073     0.03100
C1113       C  0.81583940  0.40774484  0.13516122     0.09900
C1114       C  0.89203945  0.43628969  0.15599805     0.35800
C1115       C  0.85280839  0.41060374  0.01445363     0.39200
C1116       C  0.80205271  0.37249599  0.15025932    -0.04300
C1117       C  0.77354118  0.35930726  0.17481135     0.02900
C1118       C  0.75713471  0.38064776  0.18364531    -0.03900
C1119       C  0.77038110  0.41563666  0.16742423    -0.00100
C1120       C  0.80000949  0.42927606  0.14383124    -0.02700
C1121       C  0.81733603  0.34957695  0.14035760     0.36600
C1122       C  0.75322355  0.43756770  0.17411173     0.40200
C1123       C  0.76241693  0.32421294  0.19162675     0.39300
C1124       C  0.81445696  0.46562197  0.12847121     0.36200
C1125       C  0.80165445  0.40985836  0.06284039     0.36900
C1126       C  0.94216895  0.43406143  0.10774978     0.40200
N1127       N  0.75374654  0.29625892  0.20496710    -0.37900
N1128       N  0.82958214  0.33140641  0.13242815    -0.39500
N1129       N  0.73956451  0.45512189  0.17927537    -0.37200
N1130       N  0.82606896  0.49459322  0.11613988    -0.39600
N1131       N  0.89966833  0.44108964  0.18474882    -0.39400
N1132       N  0.96962075  0.43669884  0.11709748    -0.37000
N1133       N  0.84390015  0.40401833  0.98609110    -0.38100
N1134       N  0.77273549  0.40371182  0.05384832    -0.39700
C1135       C  0.62505673  0.07168026  0.91190727    -0.04700
C1136       C  0.65623381  0.10774256  0.91036057     0.09500
C1137       C  0.66138375  0.13341080  0.93611032    -0.02100
C1138       C  0.63882652  0.12133782  0.96560619    -0.00300
C1139       C  0.61280797  0.08314549  0.97049842    -0.03900
C1140       C  0.60275738  0.05968953  0.94158422     0.03100
C1141       C  0.68464948  0.11770734  0.88284167     0.09900
C1142       C  0.69126263  0.17157801  0.93315834     0.35800
C1143       C  0.56880715  0.02426192  0.94110391     0.39200
C1144       C  0.68055544  0.13064520  0.85077765    -0.04300
C1145       C  0.70646215  0.13809633  0.82444048     0.02900
C1146       C  0.73718681  0.13322987  0.83017712    -0.03900
C1147       C  0.74127708  0.12043690  0.86252533    -0.00100
C1148       C  0.71511930  0.11273980  0.88867106    -0.02700
C1149       C  0.64952573  0.13619753  0.84498585     0.36600
C1150       C  0.77295621  0.11618312  0.86941062     0.40200
C1151       C  0.70052927  0.14940329  0.79101872     0.39300
C1152       C  0.71954899  0.09976063  0.92181424     0.36200
C1153       C  0.61690270  0.04649410  0.88345917     0.36900
C1154       C  0.64412307  0.14762135  0.99225220     0.40200
N1155       N  0.69580359  0.15833686  0.76432530    -0.37900
N1156       N  0.62478022  0.14068735  0.84051201    -0.39500
N1157       N  0.79820764  0.11277228  0.87490663    -0.37200
N1158       N  0.72302145  0.08947612  0.94830641    -0.39600
N1159       N  0.71520997  0.20201145  0.93077275    -0.39400
N1160       N  0.64828358  0.16852503  0.01355922    -0.37000
N1161       N  0.54090534  0.99665088  0.93889067    -0.38100
N1162       N  0.61045488  0.02650392  0.86068842    -0.39700
C1163       C  0.70928744  0.13818503  0.62944246    -0.04700
C1164       C  0.67907935  0.10151010  0.63089040     0.09500
C1165       C  0.67403881  0.07965564  0.66001860    -0.02100
C1166       C  0.70012482  0.09373051  0.68694805    -0.00300
C1167       C  0.73270904  0.12931877  0.68415620    -0.03900
C1168       C  0.73638469  0.15192268  0.65551608     0.03100
C1169       C  0.65521097  0.08496778  0.59992636     0.09900
C1170       C  0.64238675  0.04223811  0.66181335     0.35800
C1171       C  0.76854848  0.18881975  0.65172137     0.39200
C1172       C  0.66904102  0.07419564  0.57226564    -0.04300
C1173       C  0.64955334  0.06345012  0.54109224     0.02900
C1174       C  0.61589324  0.06351583  0.53716113    -0.03900
C1175       C  0.60027962  0.07070044  0.56605056    -0.00100
C1176       C  0.62015594  0.08181234  0.59728019    -0.02700
C1177       C  0.70415357  0.07539007  0.57562004     0.36600
C1178       C  0.56401339  0.06685535  0.56418412     0.40200
C1179       C  0.66495144  0.05328158  0.51277719     0.39300
C1180       C  0.60509085  0.09099374  0.62647105     0.36200
C1181       C  0.71283564  0.16148086  0.60042146     0.36900
C1182       C  0.69269507  0.07149791  0.71767876     0.40200
N1183       N  0.67746555  0.04536477  0.49028615    -0.37900
N1184       N  0.73219136  0.07647483  0.57829290    -0.39500
N1185       N  0.53481828  0.06340449  0.56436108    -0.37200
N1186       N  0.59303027  0.09819965  0.64981668    -0.39600
N1187       N  0.61712097  0.01240686  0.66320243    -0.39400
N1188       N  0.68668547  0.05380735  0.74221562    -0.37000
N1189       N  0.79410753  0.21827404  0.64855734    -0.38100
N1190       N  0.71544259  0.17997378  0.57730061    -0.39700
C1191       C  0.89783861  0.10933833  0.88662804    -0.04700
C1192       C  0.89267694  0.07376001  0.88054428     0.09500
C1193       C  0.87759003  0.05609491  0.84906109    -0.02100
C1194       C  0.86798514  0.07389811  0.82370051    -0.00300
C1195       C  0.87310196  0.10963465  0.82969052    -0.03900
C1196       C  0.88822079  0.12725139  0.86137180     0.03100
C1197       C  0.90408281  0.05554023  0.90725781     0.09900
C1198       C  0.87219727  0.01957785  0.84273432     0.35800
C1199       C  0.89291736  0.16337719  0.86852504     0.39200
C1200       C  0.87785248  0.02937131  0.93021902    -0.04300
C1201       C  0.88984558  0.01798469  0.95920343     0.02900
C1202       C  0.92819896  0.03328849  0.96580430    -0.03900
C1203       C  0.95353156  0.05390481  0.93940944    -0.00100
C1204       C  0.94166416  0.06599257  0.91082889    -0.02700
C1205       C  0.83876782  0.01598630  0.92511792     0.36600
C1206       C  0.50034549  0.07168965  0.94335440     0.40200
C1207       C  0.86288601  0.99240229  0.98363867     0.39300
C1208       C  0.96844591  0.09092765  0.88595880     0.36200
C1209       C  0.91279600  0.12737587  0.91920710     0.36900
C1210       C  0.85408461  0.05578451  0.79092549     0.40200
N1211       N  0.84142647  0.97206425  0.00319272    -0.37900
N1212       N  0.80758821  0.00530912  0.92089995    -0.39500
N1213       N  0.53162598  0.08224604  0.94647571    -0.37200
N1214       N  0.98977798  0.11105157  0.86621482    -0.39600
N1215       N  0.86778759  0.99038090  0.83778182    -0.39400
N1216       N  0.84301956  0.04141086  0.76476337    -0.37000
N1217       N  0.89661800  0.19218475  0.87414068    -0.38100
N1218       N  0.92471576  0.14167881  0.94523374    -0.39700
C1219       C  0.86044759  0.08180987  0.62439224    -0.04700
C1220       C  0.89578564  0.08536374  0.62592682     0.09500
C1221       C  0.91703759  0.09868543  0.65610170    -0.02100
C1222       C  0.90322158  0.10855269  0.68449347    -0.00300
C1223       C  0.86880135  0.10739261  0.68235906    -0.03900
C1224       C  0.84722431  0.09333333  0.65216021     0.03100
C1225       C  0.91106063  0.07595289  0.59540544     0.09900
C1226       C  0.95368726  0.10310489  0.65763000     0.35800
C1227       C  0.81217008  0.09218335  0.64872591     0.39200
C1228       C  0.92239504  0.09911359  0.56629525    -0.04300
C1229       C  0.93437778  0.08901842  0.53674163     0.02900
C1230       C  0.93690840  0.05646685  0.53654687    -0.03900
C1231       C  0.93033543  0.03634725  0.56726304    -0.00100
C1232       C  0.91526820  0.04459300  0.59583355    -0.02700
C1233       C  0.92130040  0.13318685  0.56662747     0.34600
C1234       C  0.94183651  0.00938978  0.57078708     0.40200
C1235       C  0.94421248  0.11240255  0.50653093     0.39300
C1236       C  0.90304418  0.02015691  0.62534611     0.36200
C1237       C  0.83788053  0.06670231  0.59387519     0.36900
C1238       C  0.92441246  0.11918982  0.71611991     0.40200
N1239       N  0.45985710  0.12718100  0.48165832    -0.37900
N1240       N  0.92047883  0.16037925  0.56684312    -0.39500
N1241       N  0.95272118  0.98930491  0.57519395    -0.37200
N1242       N  0.89295018  0.00057077  0.64882594    -0.39600
N1243       N  0.98289084  0.10659438  0.65876680    -0.39400
N1244       N  0.94124356  0.12755585  0.74135994    -0.37000
N1245       N  0.78423504  0.09130819  0.64596311    -0.38100
N1246       N  0.81996844  0.05468168  0.56948822    -0.39700
C1247       C  0.90981320  0.32094130  0.64984607    -0.04700
C1248       C  0.91919661  0.30971030  0.61937441     0.09500
C1249       C  0.91730097  0.27509281  0.61821747    -0.02100
C1250       C  0.90465301  0.25117202  0.64683187    -0.00300
C1251       C  0.89432411  0.26193493  0.67722561    -0.03900
C1252       C  0.89809491  0.29750981  0.67882489     0.03100
C1253       C  0.92915346  0.33323304  0.58773867     0.09900
C1254       C  0.92757432  0.26371113  0.58709597     0.35800
C1255       C  0.89084371  0.31057106  0.71056238     0.39200
C1256       C  0.96397558  0.36607058  0.58462684    -0.04300
C1257       C  0.97403126  0.38645449  0.55367594     0.02900
C1258       C  0.95000342  0.37317143  0.52511853    -0.03900
C1259       C  0.91400981  0.34168139  0.52925426    -0.00100
C1260       C  0.90368367  0.32202348  0.56041127    -0.02700
C1261       C  0.98974341  0.37854533  0.61315348     0.36600
C1262       C  0.88726975  0.32927286  0.50144859     0.40200
C1263       C  0.00859049  0.42143657  0.55208404     0.39300
C1264       C  0.86685780  0.28977024  0.56427060     0.36200
C1265       C  0.91135270  0.35630664  0.65106701     0.36900
C1266       C  0.90095954  0.21491225  0.64420015     0.40200
N1267       N  0.03594296  0.44973731  0.55270584    -0.37900
N1268       N  0.01024916  0.38860642  0.63595408    -0.39500
N1269       N  0.86586320  0.31932818  0.47937318    -0.37200
N1270       N  0.83755782  0.26399463  0.56736178    -0.39600
N1271       N  0.93557051  0.25462087  0.56218815    -0.39400
N1272       N  0.89820181  0.18609432  0.64181914    -0.37000
N1273       N  0.88523411  0.32101234  0.73594323    -0.38100
N1274       N  0.91265741  0.38455539  0.65194144    -0.39700
C1275       C  0.93415442  0.38339711  0.90475632    -0.04700
C1276       C  0.94516527  0.35690301  0.90148404     0.09500
C1277       C  0.96654558  0.35344790  0.92750772    -0.02100
C1278       C  0.97147564  0.37183649  0.95890970    -0.00300
C1279       C  0.95415354  0.39278020  0.96453560    -0.03900
C1280       C  0.93883606  0.40161412  0.93627675     0.03100
C1281       C  0.92787131  0.32771638  0.87454249     0.09900
C1282       C  0.98021861  0.32814480  0.92313211     0.35800
C1283       C  0.92453204  0.42640915  0.94012884     0.39200
C1284       C  0.94665723  0.33032200  0.84394327    -0.04300
C1285       C  0.93020613  0.30163813  0.81945392     0.02900
C1286       C  0.89441313  0.27046310  0.82526584    -0.03900
C1287       C  0.87551797  0.26831111  0.85589877    -0.00100
C1288       C  0.89228189  0.29671963  0.88043406    -0.02700
C1289       C  0.98261552  0.36287082  0.83755413     0.36600
C1290       C  0.83916346  0.23642723  0.86281902     0.40200
C1291       C  0.94981342  0.30488297  0.78791218     0.39300
C1292       C  0.87291593  0.29405511  0.91202927     0.36200
C1293       C  0.91489745  0.38915034  0.87668223     0.36900
C1294       C  0.99099803  0.36613616  0.98674652     0.40200
N1295       N  0.96548836  0.30737845  0.76279887    -0.37900
N1296       N  0.01121418  0.38899877  0.83247704    -0.39500
N1297       N  0.81011920  0.21114697  0.86837980    -0.37200
N1298       N  0.85754851  0.29205620  0.93721138    -0.39600
N1299       N  0.99099990  0.30784941  0.91956045    -0.39400
N1300       N  0.00641030  0.36145201  0.00902436    -0.37000
N1301       N  0.91321868  0.44639637  0.94233561    -0.38100
N1302       N  0.89947190  0.39361045  0.85426286    -0.39700
O1303       O  0.88322197  0.65480349  0.78892666    -0.81000
C1304       C  0.76497374  0.64002274  0.70454351     0.98300
O1305       O  0.76671142  0.61556508  0.72187067    -0.70100
O1306       O  0.82389763  0.60751493  0.70713568    -0.73700
Al1307     Al  0.80464852  0.61467848  0.74842811     1.49000
C1308       C  0.85737832  0.61726560  0.70199224     0.93600
O1309       O  0.89367489  0.70937445  0.70873223    -0.79900
O1310       O  0.84535371  0.72012002  0.78836826    -0.73500
Al1311     Al  0.88510088  0.68113374  0.74876145     1.90100
O1312       O  0.85638522  0.73071783  0.71859034    -0.72600
O1313       O  0.77757053  0.66484808  0.77912255    -0.72400
O1314       O  0.78943979  0.67351938  0.70881356    -0.78100
O1315       O  0.78206829  0.61598073  0.78943510    -0.76300
O1316       O  0.83624196  0.66363513  0.74860911    -1.12400
O1317       O  0.83456673  0.60188856  0.77535781    -0.71600
C1318       C  0.86356860  0.62020163  0.79296836     0.99100
C1319       C  0.88313389  0.73198213  0.70239632     0.95500
Al1320     Al  0.81874427  0.69461541  0.74865938     1.55600
O1321       O  0.88271070  0.64299529  0.71969257    -0.76200
C1322       C  0.76827676  0.63577156  0.79645126     0.99700
C1323       C  0.87943403  0.73412081  0.79407525     0.94600
O1324       O  0.89827208  0.72353915  0.77756492    -0.81600
N1325       N  0.95353678  0.91858483  0.01160038    -0.02700
C1326       C  0.95840143  0.89190445  0.99691647    -0.00100
C1327       C  0.94157003  0.86001080  0.01670647    -0.23000
C1328       C  0.92545144  0.86685035  0.04388466    -0.23200
C1329       C  0.93280822  0.90269485  0.04006301    -0.00200
H1330       H  0.93787527  0.83329367  0.01014778     0.13600
H1331       H  0.90745494  0.84684661  0.06259213     0.13600
C1332       C  0.97900096  0.52149438  0.00943590     0.81000
N1333       N  0.96377176  0.98128130  0.00837992    -0.77300
C1334       C  0.97743051  0.95795611  0.00657333     0.83500
N1335       N  0.01477470  0.97245130  0.00531060    -0.77200
C1336       C  0.54221742  0.01920828  0.01344571     0.83500
N1337       N  0.54187609  0.52819609  0.99687746    -0.79000
N1338       N  0.96647713  0.54766245  0.01107880    -0.02700
C1339       C  0.93949795  0.54767397  0.99172576    -0.00100
C1340       C  0.93054871  0.57288223  0.00457730    -0.23000
C1341       C  0.57167072  0.63736397  0.98284610    -0.23200
C1342       C  0.55934537  0.60710962  0.00453072    -0.00200
H1343       H  0.91163297  0.58047607  0.99340624     0.13600
H1344       H  0.59340984  0.66557013  0.98796114     0.13600
N1345       N  0.58139409  0.03523852  0.01910594    -0.02700
C1346       C  0.59619636  0.02692640  0.04625659    -0.00100
C1347       C  0.63274688  0.05377457  0.05092348    -0.23000
C1348       C  0.59506218  0.46504530  0.96562207    -0.23200
C1349       C  0.58063103  0.48812286  0.96642833    -0.00200
H1350       H  0.65196788  0.05316362  0.06903365     0.13600
H1351       H  0.61588298  0.46663255  0.94802799     0.13600
O1352       O  0.72266065  0.89086322  0.29272149    -0.81000
C1353       C  0.63343800  0.76437488  0.21093188     0.98300
O1354       O  0.65908089  0.76894879  0.23097718    -0.70100
O1355       O  0.72026860  0.83017635  0.21683264    -0.73700
Al1356     Al  0.69356933  0.81007579  0.25802450     1.49000
C1357       C  0.73979767  0.86379241  0.20842332     0.93600
O1358       O  0.67290336  0.88554897  0.20971120    -0.79900
O1359       O  0.61788999  0.83680864  0.29286424    -0.73500
Al1360     Al  0.69609766  0.88489662  0.25141435     1.90100
O1361       O  0.61596287  0.84508905  0.22379075    -0.72600
O1362       O  0.61338342  0.77206906  0.28381626    -0.72400
O1363       O  0.61829534  0.78370416  0.21410903    -0.78100
O1364       O  0.66919876  0.78631472  0.29956151    -0.76300
O1365       O  0.67017338  0.83554830  0.25455710    -1.12400
O1366       O  0.73367106  0.84560213  0.28571421    -0.71600
C1367       C  0.74008515  0.87480575  0.30095172     0.99100
C1368       C  0.63853588  0.87180358  0.20536106     0.95500
Al1369     Al  0.62068032  0.81140923  0.25368449     1.55600
O1370       O  0.73559328  0.88789549  0.22382379    -0.76200
C1371       C  0.63455859  0.76742832  0.30362071     0.99700
C1372       C  0.63427218  0.87161379  0.29635139     0.94600
O1373       O  0.66229105  0.89258740  0.27827397    -0.81600
N1374       N  0.94795233  0.92435106  0.49707903    -0.02700
C1375       C  0.94557326  0.89418454  0.51277690    -0.00100
C1376       C  0.91731147  0.86192888  0.49849900    -0.23000
C1377       C  0.90131784  0.87225245  0.47367158    -0.23200
C1378       C  0.92017049  0.91046157  0.47348542    -0.00200
H1379       H  0.90771988  0.83393086  0.50698033     0.13600
H1380       H  0.87764678  0.85381269  0.45791535     0.13600
C1381       C  0.53603926  0.52231895  0.49700426     0.81000
N1382       N  0.51888913  0.54244310  0.49744335    -0.77300
C1383       C  0.48156240  0.52581333  0.49693666     0.83500
N1384       N  0.96149897  0.47587854  0.49000371    -0.77200
C1385       C  0.97531228  0.96291407  0.50201249     0.83500
N1386       N  0.01225858  0.97493356  0.49988660    -0.79000
N1387       N  0.96635504  0.53542455  0.48448161    -0.02700
C1388       C  0.93222430  0.52522435  0.49692050    -0.00100
C1389       C  0.90964629  0.52434902  0.47050924    -0.23000
C1390       C  0.43053317  0.55219683  0.44671754    -0.23200
C1391       C  0.46491694  0.55763774  0.45540993    -0.00200
H1392       H  0.88252824  0.52118051  0.47324648     0.13600
H1393       H  0.42332930  0.56117516  0.42342825     0.13600
N1394       N  0.57553468  0.02660076  0.48819213    -0.02700
C1395       C  0.58596754  0.02833633  0.45502262    -0.00100
C1396       C  0.61451626  0.06356485  0.44714281    -0.23000
C1397       C  0.61551249  0.59922348  0.47045886    -0.23200
C1398       C  0.59753153  0.57675723  0.49837126    -0.00200
H1399       H  0.63054153  0.07227949  0.42377803     0.13600
H1400       H  0.63816456  0.62773255  0.47142216     0.13600
C1401       C  0.61110638  0.68286876  0.35921836    -0.04700
C1402       C  0.57776206  0.67600072  0.37444631     0.09500
C1403       C  0.56568580  0.70157928  0.36968066    -0.02100
C1404       C  0.58582769  0.73288656  0.34853140    -0.00300
C1405       C  0.61770598  0.73836957  0.33087136    -0.03900
C1406       C  0.63101772  0.71383840  0.33739700     0.03100
C1407       C  0.55471690  0.64190731  0.39558821     0.09900
C1408       C  0.53200604  0.69528291  0.38626636     0.35800
C1409       C  0.66442439  0.71943201  0.32091311     0.39200
C1410       C  0.55641871  0.64431981  0.43151596    -0.04300
C1411       C  0.52828089  0.61589499  0.45155572     0.02900
C1412       C  0.49923284  0.58357500  0.43576940    -0.03900
C1413       C  0.50023454  0.57957471  0.39991508    -0.00100
C1414       C  0.52743490  0.60890330  0.37986983    -0.02700
C1415       C  0.58610191  0.67729116  0.44768293     0.36600
C1416       C  0.47240093  0.54577503  0.38342042     0.40200
C1417       C  0.52747091  0.62245933  0.48781396     0.39300
C1418       C  0.52633110  0.60595060  0.34287873     0.36200
C1419       C  0.62465171  0.65776576  0.36576987     0.36900
C1420       C  0.57412336  0.75997912  0.34591522     0.40200
N1421       N  0.52724235  0.62890966  0.51653566    -0.37900
N1422       N  0.60989038  0.70355328  0.46049682    -0.39500
N1423       N  0.45024457  0.51886698  0.37013370    -0.37200
N1424       N  0.52552141  0.60370415  0.31335056    -0.39600
N1425       N  0.50513682  0.69014879  0.39951478    -0.39400
N1426       N  0.56462670  0.78148706  0.34438475    -0.37000
N1427       N  0.69112241  0.72378695  0.30789310    -0.38100
N1428       N  0.63564181  0.63786944  0.37100029    -0.39700
C1429       C  0.58444347  0.94114955  0.42474770    -0.04700
C1430       C  0.58240609  0.94448593  0.38902218     0.09500
C1431       C  0.57464236  0.97111076  0.37570472    -0.02100
C1432       C  0.57197512  0.99624421  0.39782563    -0.00300
C1433       C  0.57789016  0.99555174  0.43344235    -0.03900
C1434       C  0.58322359  0.96710605  0.44685541     0.03100
C1435       C  0.59489327  0.92461171  0.36566000     0.09900
C1436       C  0.57167865  0.97410262  0.33898863     0.35800
C1437       C  0.59250126  0.96712423  0.48258403     0.39200
C1438       C  0.56931547  0.89367793  0.34629530    -0.04300
C1439       C  0.58196977  0.87607944  0.32378270     0.02900
C1440       C  0.62035569  0.88867365  0.32127558    -0.03900
C1441       C  0.64575483  0.91930370  0.34134623    -0.00100
C1442       C  0.63313338  0.93753828  0.36281088    -0.02700
C1443       C  0.53002552  0.88033824  0.34930310     0.36600
C1444       C  0.68502420  0.93190596  0.34073944     0.40200
C1445       C  0.55553718  0.84627586  0.30200494     0.39300
C1446       C  0.65970319  0.97026945  0.38166285     0.36200
C1447       C  0.59056885  0.91247470  0.43849066     0.36900
C1448       C  0.56564765  0.02446528  0.38347866     0.40200
N1449       N  0.53444560  0.82261145  0.28452117    -0.37900
N1450       N  0.49868959  0.86979050  0.35173609    -0.39500
N1451       N  0.71643745  0.94237277  0.34077752    -0.37200
N1452       N  0.68078689  0.99643071  0.39663260    -0.39600
N1453       N  0.56925593  0.97642832  0.30969746    -0.39400
N1454       N  0.56115711  0.04719355  0.37162275    -0.37000
N1455       N  0.60097733  0.96710338  0.51077126    -0.38100
N1456       N  0.59550266  0.88960005  0.44931805    -0.39700
C1457       C  0.80148937  0.88003823  0.37546299    -0.04700
C1458       C  0.82814548  0.91820184  0.37630863     0.09500
C1459       C  0.82451938  0.94273588  0.35414680    -0.02100
C1460       C  0.79527547  0.92889894  0.32996792    -0.00300
C1461       C  0.76900134  0.89035080  0.32835813    -0.03900
C1462       C  0.77182357  0.86624775  0.35204038     0.03100
C1463       C  0.86067937  0.93141341  0.39985625     0.09900
C1464       C  0.85142789  0.98207184  0.35587225     0.35800
C1465       C  0.74390590  0.82717885  0.35312606     0.39200
C1466       C  0.89140923  0.92866032  0.38956232    -0.04300
C1467       C  0.91635379  0.92935619  0.41426281     0.02900
C1468       C  0.90962261  0.93101870  0.44935266    -0.03900
C1469       C  0.88193105  0.93895336  0.45907771    -0.00100
C1470       C  0.85767475  0.93948522  0.43424778    -0.02700
C1471       C  0.89519559  0.92149237  0.35398734     0.36600
C1472       C  0.87606229  0.94343001  0.49477338     0.40200
C1473       C  0.94695432  0.92470727  0.40397958     0.39300
C1474       C  0.82752977  0.94492055  0.44444410     0.36200
C1475       C  0.80514436  0.85470854  0.39838418     0.36900
C1476       C  0.79351456  0.95421496  0.30572061     0.40200
N1477       N  0.97144999  0.92108389  0.39587119    -0.37900
N1478       N  0.89788332  0.91547417  0.32559810    -0.39500
N1479       N  0.87052671  0.94769664  0.52287146    -0.37200
N1480       N  0.80349513  0.94926340  0.45262375    -0.39600
N1481       N  0.87294885  0.01345347  0.35746072    -0.39400
N1482       N  0.79211762  0.97441604  0.28634864    -0.37000
N1483       N  0.72197587  0.79594674  0.35480803    -0.38100
N1484       N  0.80823993  0.83457235  0.41653669    -0.39700
C1485       C  0.58988613  0.93814795  0.07292345    -0.04700
C1486       C  0.58355183  0.93891560  0.10824860     0.09500
C1487       C  0.57118300  0.96244721  0.12054617    -0.02100
C1488       C  0.56895170  0.98777453  0.09820182    -0.00300
C1489       C  0.58056272  0.99067091  0.06397092    -0.03900
C1490       C  0.58915509  0.96451134  0.05092568     0.03100
C1491       C  0.59700365  0.92090272  0.13297452     0.09900
C1492       C  0.56432470  0.96301769  0.15682502     0.35800
C1493       C  0.60252990  0.96825898  0.01611549     0.39200
C1494       C  0.63114735  0.94303201  0.14986503    -0.04300
C1495       C  0.64423538  0.92716676  0.17382001     0.02900
C1496       C  0.62442399  0.88834349  0.17971785    -0.03900
C1497       C  0.59016335  0.86612029  0.16241600    -0.00100
C1498       C  0.57644670  0.88248679  0.13943003    -0.02700
C1499       C  0.65288506  0.98250143  0.14258136     0.36600
C1500       C  0.56879660  0.82635893  0.16795227     0.40200
C1501       C  0.67676410  0.95158269  0.19402149     0.39300
C1502       C  0.54104911  0.85991558  0.12247889     0.36200
C1503       C  0.60089559  0.91279480  0.05991162     0.36900
C1504       C  0.55816646  0.01332955  0.11105896     0.40200
N1505       N  0.70244707  0.97133946  0.21028121    -0.37900
N1506       N  0.67006822  0.01391618  0.13664587    -0.39500
N1507       N  0.55162952  0.79463027  0.17231774    -0.37200
N1508       N  0.51282122  0.84197684  0.10890802    -0.39600
N1509       N  0.55901694  0.96347172  0.18581071    -0.39400
N1510       N  0.54951238  0.03371461  0.12126747    -0.37000
N1511       N  0.61409325  0.97190365  0.98863599    -0.38100
N1512       N  0.60956857  0.89245390  0.04960214    -0.39700
C1513       C  0.61948249  0.65909819  0.07885961    -0.04700
C1514       C  0.59225558  0.65578983  0.10194935     0.09500
C1515       C  0.55511636  0.62744862  0.09729069    -0.02100
C1516       C  0.54448003  0.60555016  0.06735238    -0.00300
C1517       C  0.57093240  0.61308123  0.04133941    -0.03900
C1518       C  0.60891407  0.63739209  0.04890801     0.03100
C1519       C  0.60239517  0.68342525  0.13012068     0.09900
C1520       C  0.52752680  0.62246046  0.12241537     0.35800
C1521       C  0.63702095  0.64227898  0.02450418     0.39200
C1522       C  0.60462660  0.71765234  0.12352544    -0.04300
C1523       C  0.61525219  0.74431246  0.14972260     0.02900
C1524       C  0.62167720  0.73609335  0.18329638    -0.03900
C1525       C  0.61895987  0.70144565  0.18979267    -0.00100
C1526       C  0.61012804  0.67564460  0.16311985    -0.02700
C1527       C  0.59628500  0.72552536  0.08956290     0.36600
C1528       C  0.62456382  0.69168959  0.22397187     0.40200
C1529       C  0.62225729  0.78109599  0.14136185     0.39300
C1530       C  0.60943868  0.64114785  0.16938481     0.36200
C1531       C  0.65811795  0.68654444  0.08491455     0.36900
C1532       C  0.95850854  0.55134664  0.10708934     0.40200
N1533       N  0.62852763  0.81061417  0.13445401    -0.37900
N1534       N  0.58946922  0.73171813  0.06250543    -0.39500
N1535       N  0.62881147  0.68329047  0.25106415    -0.37200
N1536       N  0.60909831  0.61370587  0.17416299    -0.39600
N1537       N  0.50562970  0.61867014  0.14249711    -0.39400
N1538       N  0.92940555  0.52762696  0.11506470    -0.37000
N1539       N  0.65967363  0.64666769  0.00508566    -0.38100
N1540       N  0.68889857  0.70856415  0.08974264    -0.39700
C1541       C  0.84766171  0.90225572  0.07019926    -0.04700
C1542       C  0.85633553  0.91060188  0.10513002     0.09500
C1543       C  0.89324930  0.92506102  0.11629301    -0.02100
C1544       C  0.92029259  0.92695275  0.09353611    -0.00300
C1545       C  0.91077284  0.91536472  0.05930156    -0.03900
C1546       C  0.87481690  0.90472265  0.04731364     0.03100
C1547       C  0.82579615  0.89861143  0.13089213     0.09900
C1548       C  0.90263887  0.93572609  0.15179722     0.35800
C1549       C  0.86428352  0.89186879  0.01242080     0.39200
C1550       C  0.81345781  0.86524210  0.14910299    -0.04300
C1551       C  0.78540071  0.85369054  0.17405744     0.02900
C1552       C  0.76859552  0.87518004  0.18078509    -0.03900
C1553       C  0.77998047  0.90781777  0.16102454    -0.00100
C1554       C  0.80872498  0.91962122  0.13662484    -0.02700
C1555       C  0.82965759  0.84251225  0.14182752     0.36600
C1556       C  0.76131082  0.92874893  0.16438656     0.40200
C1557       C  0.77462548  0.81980442  0.19293863     0.39300
C1558       C  0.82072081  0.95337225  0.11713328     0.36200
C1559       C  0.80995145  0.88810566  0.05842532     0.36900
C1560       C  0.95702086  0.93765951  0.10599296     0.40200
N1561       N  0.76603703  0.79264988  0.20775512    -0.37900
N1562       N  0.84260777  0.82447887  0.13586328    -0.39500
N1563       N  0.74657209  0.94566677  0.16653052    -0.37200
N1564       N  0.83027964  0.98021623  0.10146379    -0.39600
N1565       N  0.90998759  0.94436411  0.18013214    -0.39400
N1566       N  0.98629058  0.94606061  0.11594850    -0.37000
N1567       N  0.85516452  0.88096024  0.98485083    -0.38100
N1568       N  0.77986085  0.87677183  0.04904260    -0.39700
C1569       C  0.61459551  0.54160705  0.88492543    -0.04700
C1570       C  0.64818152  0.57215480  0.89662925     0.09500
C1571       C  0.65323237  0.57993513  0.93197647    -0.02100
C1572       C  0.62751597  0.55436923  0.95569057    -0.00300
C1573       C  0.59611389  0.52140128  0.94405847    -0.03900
C1574       C  0.58852366  0.51636666  0.90864474     0.03100
C1575       C  0.68060898  0.59157511  0.87274423     0.09900
C1576       C  0.68670891  0.61258228  0.94388286     0.35800
C1577       C  0.55549567  0.48329444  0.89664690     0.39200
C1578       C  0.68331856  0.61832671  0.84916690    -0.04300
C1579       C  0.71218970  0.63357762  0.82463989     0.02900
C1580       C  0.73980007  0.62335255  0.82450817    -0.03900
C1581       C  0.73841095  0.59868219  0.85034906    -0.00100
C1582       C  0.70838645  0.58202060  0.87335344    -0.02700
C1583       C  0.65601364  0.62979994  0.85007307     0.36600
C1584       C  0.76801456  0.59046354  0.85398914     0.40200
C1585       C  0.71218671  0.65857808  0.79890728     0.39300
C1586       C  0.70548337  0.55402090  0.89723724     0.36200
C1587       C  0.60836357  0.53449152  0.84853057     0.36900
C1588       C  0.63612975  0.55945590  0.99191473     0.40200
N1589       N  0.71200547  0.67844009  0.77836329    -0.37900
N1590       N  0.63423919  0.63896685  0.85104882    -0.39500
N1591       N  0.79155318  0.58387584  0.85703001    -0.37200
N1592       N  0.70301048  0.53158250  0.91617199    -0.39600
N1593       N  0.71353372  0.63864543  0.95319537    -0.39400
N1594       N  0.64357178  0.56346808  0.02071487    -0.37000
N1595       N  0.52914159  0.45691920  0.88706574    -0.38100
N1596       N  0.60350578  0.52896230  0.81944905    -0.39700
C1597       C  0.70120569  0.64673968  0.63760544    -0.04700
C1598       C  0.68042932  0.60984992  0.62616328     0.09500
C1599       C  0.68393640  0.58204255  0.64294200    -0.02100
C1600       C  0.71078963  0.59143615  0.66885251    -0.00300
C1601       C  0.73398283  0.62913354  0.67907245    -0.03900
C1602       C  0.72706177  0.65627280  0.66450480     0.03100
C1603       C  0.65823954  0.60086132  0.59385978     0.09900
C1604       C  0.66031284  0.54363319  0.63267663     0.35800
C1605       C  0.74574584  0.69406725  0.67718489     0.39200
C1606       C  0.67314320  0.59585450  0.56349915    -0.04300
C1607       C  0.65325241  0.58794729  0.53262010     0.02900
C1608       C  0.61777158  0.58463974  0.53170270    -0.03900
C1609       C  0.60256497  0.58892064  0.56242090    -0.00100
C1610       C  0.62291451  0.59728453  0.59334426    -0.02700
C1611       C  0.70923110  0.59883694  0.56411217     0.36600
C1612       C  0.56612840  0.58479879  0.56274650     0.40200
C1613       C  0.66956141  0.58278393  0.50191197     0.39300
C1614       C  0.60754368  0.60212786  0.62475844     0.36200
C1615       C  0.69657962  0.67513799  0.62093746     0.36900
C1616       C  0.71442685  0.56178307  0.68403491     0.40200
N1617       N  0.68270977  0.57864936  0.47757723    -0.37900
N1618       N  0.73786706  0.60098745  0.56474190    -0.39500
N1619       N  0.53699393  0.58136651  0.56449883    -0.37200
N1620       N  0.59534801  0.60613289  0.64980439    -0.39600
N1621       N  0.64137393  0.51306837  0.62445750    -0.39400
N1622       N  0.71706655  0.53790448  0.69595840    -0.37000
N1623       N  0.76051547  0.72427619  0.68712331    -0.38100
N1624       N  0.69277816  0.69768820  0.60760926    -0.39700
C1625       C  0.90428524  0.59951543  0.87197052    -0.04700
C1626       C  0.89315602  0.56191666  0.86677404     0.09500
C1627       C  0.87330835  0.54365477  0.83708092    -0.02100
C1628       C  0.86413559  0.56270292  0.81273489    -0.00300
C1629       C  0.87455953  0.60041875  0.81811618    -0.03900
C1630       C  0.89542200  0.61880632  0.84774163     0.03100
C1631       C  0.90209906  0.54204460  0.89353712     0.09900
C1632       C  0.86236089  0.50516305  0.83168675     0.35800
C1633       C  0.90774105  0.65753471  0.85391665     0.39200
C1634       C  0.87580695  0.52136204  0.91899328    -0.04300
C1635       C  0.88779308  0.51511274  0.95070717     0.02900
C1636       C  0.92609360  0.53101399  0.95732277    -0.03900
C1637       C  0.95099361  0.54442099  0.92945273    -0.00100
C1638       C  0.93890054  0.55006219  0.89746114    -0.02700
C1639       C  0.83716949  0.50991203  0.91381866     0.36600
C1640       C  0.50815065  0.55221048  0.89725952     0.40200
C1641       C  0.86140681  0.49677590  0.97817205     0.39300
C1642       C  0.96490147  0.56728007  0.86952414     0.36200
C1643       C  0.92446571  0.61827442  0.90283762     0.36900
C1644       C  0.84503770  0.54343955  0.78167664     0.40200
N1645       N  0.84042213  0.48237492  0.00017739    -0.37900
N1646       N  0.80633820  0.50077708  0.90961163    -0.39500
N1647       N  0.52995189  0.54577346  0.88651034    -0.37200
N1648       N  0.98554516  0.58100704  0.84715416    -0.39600
N1649       N  0.85355372  0.47441845  0.82750399    -0.39400
N1650       N  0.82980970  0.52803424  0.75693096    -0.37000
N1651       N  0.91814244  0.68853865  0.85885014    -0.38100
N1652       N  0.94053621  0.63313732  0.92744889    -0.39700
C1653       C  0.85661698  0.56715336  0.61974094    -0.04700
C1654       C  0.88995807  0.56672525  0.62304134     0.09500
C1655       C  0.91069007  0.57965589  0.65351479    -0.02100
C1656       C  0.89899370  0.59429917  0.67994737    -0.00300
C1657       C  0.86740492  0.59809227  0.67540979    -0.03900
C1658       C  0.84589222  0.58366120  0.64521862     0.03100
C1659       C  0.90534879  0.55732547  0.59255412     0.09900
C1660       C  0.94475289  0.57891088  0.65723320     0.35800
C1661       C  0.81386682  0.58753708  0.63907466     0.39200
C1662       C  0.91910604  0.58238745  0.56485792    -0.04300
C1663       C  0.92960563  0.57256777  0.53430400     0.02900
C1664       C  0.92747807  0.53777148  0.53133322    -0.03900
C1665       C  0.91773446  0.51456524  0.56039370    -0.00100
C1666       C  0.90563244  0.52378328  0.59061946    -0.02700
C1667       C  0.92173654  0.61821710  0.56764920     0.34600
C1668       C  0.92087286  0.48173743  0.55971364     0.40200
C1669       C  0.94195559  0.59831241  0.50569347     0.39300
C1670       C  0.89257970  0.49835390  0.61936887     0.36200
C1671       C  0.83386169  0.55143751  0.58940099     0.36900
C1672       C  0.91940273  0.60485390  0.71198915     0.40200
N1673       N  0.45289563  0.63343549  0.48839133    -0.37900
N1674       N  0.92372318  0.64670203  0.56999947    -0.39500
N1675       N  0.92415428  0.45594489  0.56035994    -0.37200
N1676       N  0.88219204  0.47802457  0.64230670    -0.39600
N1677       N  0.97188344  0.57822955  0.66015215    -0.39400
N1678       N  0.93559197  0.61314760  0.73758435    -0.37000
N1679       N  0.78845649  0.59076596  0.63386557    -0.38100
N1680       N  0.81575839  0.53878325  0.56521667    -0.39700
C1681       C  0.96014777  0.81773809  0.65818443    -0.04700
C1682       C  0.94074528  0.82162927  0.63054162     0.09500
C1683       C  0.90318506  0.79414522  0.62486655    -0.02100
C1684       C  0.88458130  0.76435871  0.64788734    -0.00300
C1685       C  0.90346062  0.76135424  0.67643583    -0.03900
C1686       C  0.94184192  0.78702159  0.68048938     0.03100
C1687       C  0.95852654  0.85455106  0.60716063     0.09900
C1688       C  0.88352881  0.79665066  0.59525612     0.35800
C1689       C  0.96234802  0.78236389  0.70809838     0.39200
C1690       C  0.97961767  0.85481901  0.57903676    -0.04300
C1691       C  0.98140684  0.87462520  0.54908409     0.02900
C1692       C  0.96059296  0.89256752  0.54676929    -0.03900
C1693       C  0.94290926  0.89532303  0.57650564    -0.00100
C1694       C  0.94483948  0.87900081  0.60737911    -0.02700
C1695       C  0.99617908  0.83174862  0.57969319     0.36600
C1696       C  0.91528698  0.90617615  0.57395968     0.40200
C1697       C  0.99928563  0.87120041  0.51877859     0.39300
C1698       C  0.92749048  0.88243115  0.63814960     0.36200
C1699       C  0.99850756  0.84586129  0.66421246     0.36900
C1700       C  0.84659835  0.73567759  0.64104701     0.40200
N1701       N  0.01298608  0.86790607  0.49444751    -0.37900
N1702       N  0.00947062  0.81338539  0.58029300    -0.39500
N1703       N  0.89167945  0.91278980  0.57303612    -0.37200
N1704       N  0.91383762  0.88522750  0.66276458    -0.39600
N1705       N  0.86792934  0.79882414  0.57170616    -0.39400
N1706       N  0.81655464  0.71263490  0.63488097    -0.37000
N1707       N  0.97863299  0.77859438  0.73015677    -0.38100
N1708       N  0.02910668  0.86837857  0.66908154    -0.39700
C1709       C  0.93557623  0.87285601  0.90400617    -0.04700
C1710       C  0.94958142  0.84904735  0.89803713     0.09500
C1711       C  0.97679712  0.85043837  0.92025547    -0.02100
C1712       C  0.98480642  0.87018535  0.95133712    -0.00300
C1713       C  0.96622717  0.88937541  0.95996908    -0.03900
C1714       C  0.94495382  0.89404114  0.93436974     0.03100
C1715       C  0.93250146  0.81952898  0.87102508     0.09900
C1716       C  0.99483438  0.82970998  0.91197525     0.35800
C1717       C  0.93079341  0.91877216  0.93969177     0.39200
C1718       C  0.94062949  0.82837705  0.83610486    -0.04300
C1719       C  0.92242218  0.80071421  0.81089715     0.02900
C1720       C  0.89752696  0.76354246  0.82048978    -0.03900
C1721       C  0.88872922  0.75485144  0.85536993    -0.00100
C1722       C  0.90620132  0.78268360  0.88053123    -0.02700
C1723       C  0.96738833  0.86611465  0.82615408     0.36600
C1724       C  0.86084982  0.71744003  0.86524339     0.40200
C1725       C  0.92636465  0.81142960  0.77522288     0.39300
C1726       C  0.89661688  0.77360299  0.91628995     0.36200
C1727       C  0.90942152  0.87352748  0.88006540     0.36900
C1728       C  0.00973264  0.86805091  0.97577220     0.40200
N1729       N  0.92888226  0.82104390  0.74708970    -0.37900
N1730       N  0.98876601  0.89624661  0.81828590    -0.39500
N1731       N  0.83840384  0.68761480  0.87292174    -0.37200
N1732       N  0.88909019  0.76652214  0.94485713    -0.39600
N1733       N  0.00932852  0.81330108  0.90520010    -0.39400
N1734       N  0.02933566  0.86579058  0.99524113    -0.37000
N1735       N  0.91977333  0.93890815  0.94301543    -0.38100
N1736       N  0.88851981  0.87400428  0.86096169    -0.39700
loop_ 
_geom_bond_atom_site_label_1 
_geom_bond_atom_site_label_2 
_geom_bond_distance 
_geom_bond_site_symmetry_2 
_ccdc_geom_bond_type 
O1           C16   1.259       .  A
O1           Al9   1.898       .  S
C2           O12   1.261       .  A
C2            O3   1.261       .  A
C2          C299   1.499       .  S
O3           Al5   1.905       .  S
O4            C6   1.260       .  A
O4           Al5   1.892       .  S
Al5          O13   1.907       .  S
Al5          O15   1.905       .  S
Al5          O14   1.794       .  S
C6           O19   1.263       .  A
C6          C355   1.500       .  S
O7           C17   1.259       .  A
O7           Al9   1.904       .  S
O8           C21   1.262       .  A
O8          Al18   1.895       .  S
Al9          O22   1.919       .  S
Al9          O19   1.917       .  S
Al9          O14   1.797       .  S
O10          C17   1.259       .  A
O10         Al18   1.905       .  S
O11          C20   1.261       .  A
O11         Al18   1.914       .  S
O12         Al18   1.905       .  S
O13          C20   1.262       .  A
O14         Al18   1.795       .  S
O15          C16   1.259       .  A
C16         C327   1.485       .  S
C17         C383   1.495       .  S
C20         C278   1.497       .  S
C21          O22   1.263       .  A
C21         C418   1.502       .  S
N23          C27   1.361   1_556  A
N23          C24   1.360       .  A
N23          C32   1.439       .  S
C24         C411   1.484       .  S
C24          C25   1.377       .  A
C25          C26   1.366       .  A
C25          H28   1.084       .  S
C26          C27   1.386   1_556  A
C26          H29   1.078   1_556  S
C27         C243   1.493       .  S
C30         N465   1.362   1_545  A
C30         N903   1.360       .  A
C30          N36   1.438       .  S
N31          C32   1.362       .  A
N31         C464   1.361       .  A
C32          N33   1.359       .  A
N33         C902   1.359       .  A
C34         N901   1.359       .  A
C34         N469   1.362       .  A
C34          N43   1.441       .  S
N35         C898   1.361   1_455  A
N35         C468   1.361       .  A
N36          C37   1.360   1_554  A
N36         C908   1.360       .  A
C37         C334   1.493       .  S
C37          C38   1.385   1_556  A
C38         C907   1.365       .  A
C38          H41   1.081       .  S
C39          C40   1.377       .  A
C39         C906   1.366       .  A
C39          H42   1.081       .  S
C40         C215   1.490   1_655  S
C40         N904   1.362       .  A
N43          C44   1.359       .  A
N43         C481   1.361   1_554  A
C44         C187   1.483       .  S
C44          C45   1.377       .  A
C45         C480   1.364       .  A
C45          H48   1.084       .  S
C46          C47   1.386   1_554  A
C46         C479   1.366       .  A
C46          H49   1.077       .  S
C47         C271   1.498       .  S
C47         N477   1.362   1_556  A
O50          C65   1.261       .  A
O50         Al58   1.925       .  S
C51          O61   1.262       .  A
C51          O52   1.261       .  A
C51         C222   1.501       .  S
O52         Al54   1.909       .  S
O53          C55   1.268       .  A
O53         Al54   1.933       .  S
Al54         O62   1.931       .  S
Al54         O64   1.898       .  S
Al54         O63   1.785       .  S
C55          O68   1.262       .  A
C55         C250   1.492       .  S
O56          C66   1.263       .  A
O56         Al58   1.922       .  S
O57          C70   1.264       .  A
O57         Al67   1.921       .  S
Al58         O71   1.895       .  S
Al58         O68   1.891       .  S
Al58         O63   1.786       .  S
O59          C66   1.261       .  A
O59         Al67   1.905       .  S
O60          C69   1.259       .  A
O60         Al67   1.881       .  S
O61         Al67   1.910       .  S
O62          C69   1.266       .  A
O63         Al67   1.786       .  S
O64          C65   1.259       .  A
C65         C159   1.516       .  S
C66         C194   1.496       .  S
C69         C103   1.509       .  S
C70          O71   1.263       .  A
C70         C138   1.508       .  S
N72          C76   1.363       .  A
N72          C73   1.364       .  A
N72          C83   1.445       .  S
C73         C390   1.497       .  S
C73          C74   1.383       .  A
C74          C75   1.368       .  A
C74          H77   1.084       .  S
C75          C76   1.381       .  A
C75          H78   1.085       .  S
C76         C166   1.503       .  S
C79          N80   1.369       .  A
C79        N1386   1.368   1_545  A
C79         N526   1.447       .  S
N80          C81   1.361   1_455  A
C81         N950   1.357   1_545  A
C81         N953   1.444       .  S
N82         C949   1.362   1_565  A
N82         C517   1.361       .  A
C83          N84   1.368       .  A
C83         N516   1.358       .  A
N84        C1381   1.366       .  A
N85          C86   1.358       .  A
N85         C957   1.356       .  A
N85         C949   1.439       .  S
C86         C362   1.499       .  S
C86          C87   1.387       .  A
C87         C956   1.372       .  A
C87          H90   1.080       .  S
C88          C89   1.381       .  A
C88         C955   1.365       .  A
C88          H91   1.085       .  S
C89         C110   1.495   1_655  S
C89         N953   1.359       .  A
N92          C93   1.356       .  A
N92         C530   1.359       .  A
N92         C513   1.438       .  S
C93         C131   1.497       .  S
C93          C94   1.380       .  A
C94         C529   1.372       .  A
C94          H97   1.081       .  S
C95          C96   1.383       .  A
C95         C528   1.365       .  A
C95          H98   1.083       .  S
C96         C306   1.498       .  S
C96         N526   1.366       .  A
C99         C100   1.410       .  A
C99         C104   1.416       .  A
C99         C117   1.451       .  S
C100        C105   1.504       .  S
C100        C101   1.411       .  A
C101        C102   1.410       .  A
C101        C106   1.453       .  S
C102        C103   1.424       .  A
C102        C118   1.452       .  S
C103        C104   1.424       .  A
C104        C107   1.450       .  S
C105        C108   1.412       .  A
C105        C112   1.412       .  A
C106        N123   1.157       .  T
C107        N125   1.157       .  T
C108        C109   1.412       .  A
C108        C113   1.452       .  S
C109        C110   1.418       .  A
C109        C115   1.450       .  S
C110        C111   1.414       .  A
C111        C112   1.412       .  A
C111        C114   1.450   1_455  S
C112        C116   1.451       .  S
C113        N120   1.157       .  T
C114        N121   1.157       .  T
C115        N119   1.157       .  T
C116        N122   1.157       .  T
C117        N126   1.157       .  T
C118        N124   1.157       .  T
C127        C128   1.408       .  A
C127        C132   1.410       .  A
C127        C145   1.452       .  S
C128        C133   1.499       .  S
C128        C129   1.411       .  A
C129        C130   1.412       .  A
C129        C134   1.450       .  S
C130        C131   1.414       .  A
C130        C146   1.450       .  S
C131        C132   1.420       .  A
C132        C135   1.448       .  S
C133        C136   1.407       .  A
C133        C140   1.411       .  A
C134        N151   1.157       .  T
C135        N153   1.157       .  T
C136        C137   1.415       .  A
C136        C141   1.451       .  S
C137        C138   1.427       .  A
C137        C143   1.450       .  S
C138        C139   1.421       .  A
C139        C140   1.409       .  A
C139        C142   1.451       .  S
C140        C144   1.453       .  S
C141        N148   1.157   1_455  T
C142        N149   1.157       .  T
C143        N147   1.157       .  T
C144        N150   1.157       .  T
C145        N154   1.157       .  T
C146        N152   1.157       .  T
C155        C156   1.409       .  A
C155        C160   1.412       .  A
C155        C173   1.454       .  S
C156        C161   1.501       .  S
C156        C157   1.405       .  A
C157        C158   1.417       .  A
C157        C162   1.451       .  S
C158        C159   1.430       .  A
C158        C174   1.450       .  S
C159        C160   1.427       .  A
C160        C163   1.452       .  S
C161        C164   1.408       .  A
C161        C168   1.407       .  A
C162        N179   1.157       .  T
C163        N181   1.158       .  T
C164        C165   1.412       .  A
C164        C169   1.451       .  S
C165        C166   1.418       .  A
C165        C171   1.447       .  S
C166        C167   1.420       .  A
C167        C168   1.414       .  A
C167        C170   1.446       .  S
C168        C172   1.451       .  S
C169        N176   1.157       .  T
C170        N177   1.156       .  T
C171        N175   1.156       .  T
C172        N178   1.157       .  T
C173        N182   1.157       .  T
C174        N180   1.157       .  T
C183        C184   1.410       .  A
C183        C188   1.410       .  A
C183        C201   1.451       .  S
C184        C189   1.501       .  S
C184        C185   1.413       .  A
C185        C186   1.414       .  A
C185        C190   1.449       .  S
C186        C187   1.410       .  A
C186        C202   1.451       .  S
C187        C188   1.414       .  A
C188        C191   1.451       .  S
C189        C192   1.412       .  A
C189        C196   1.409       .  A
C190        N207   1.157       .  T
C191        N209   1.157   1_554  T
C192        C193   1.411       .  A
C192        C197   1.452       .  S
C193        C194   1.416       .  A
C193        C199   1.452       .  S
C194        C195   1.419       .  A
C195        C196   1.416       .  A
C195        C198   1.449       .  S
C196        C200   1.450       .  S
C197        N204   1.157       .  T
C198        N205   1.157       .  T
C199        N203   1.157       .  T
C200        N206   1.157   1_455  T
C201        N210   1.157       .  T
C202        N208   1.157       .  T
C211        C212   1.410       .  A
C211        C216   1.413       .  A
C211        C229   1.451       .  S
C212        C217   1.501       .  S
C212        C213   1.410       .  A
C213        C214   1.413       .  A
C213        C218   1.450       .  S
C214        C215   1.412       .  A
C214       C1098   1.448   1_455  S
C215        C216   1.416       .  A
C216        C219   1.449       .  S
C217        C220   1.411       .  A
C217        C224   1.409       .  A
C218        N235   1.157       .  T
C219        N237   1.157   1_554  T
C220        C221   1.409       .  A
C220        C225   1.453       .  S
C221        C222   1.419       .  A
C221        C227   1.451       .  S
C222        C223   1.422       .  A
C223        C224   1.418       .  A
C223        C226   1.450       .  S
C224        C228   1.450       .  S
C225        N232   1.157       .  T
C226        N233   1.157       .  T
C227        N231   1.157       .  T
C228        N234   1.157       .  T
C229        N238   1.157       .  T
C230       C1082   1.449       .  S
C230        N236   1.157       .  T
C239        C240   1.412       .  A
C239        C244   1.411       .  A
C239        C257   1.450       .  S
C240        C245   1.502       .  S
C240        C241   1.411       .  A
C241        C242   1.414       .  A
C241        C246   1.450       .  S
C242        C243   1.416       .  A
C242        C258   1.448       .  S
C243        C244   1.414       .  A
C244        C247   1.451       .  S
C245        C248   1.416       .  A
C245        C252   1.409       .  A
C246        N263   1.157       .  T
C247        N265   1.157   1_554  T
C248        C249   1.413       .  A
C248        C253   1.452       .  S
C249        C250   1.413       .  A
C249        C255   1.451       .  S
C250        C251   1.419       .  A
C251        C252   1.413       .  A
C251        C254   1.450       .  S
C252        C256   1.450       .  S
C253        N260   1.157       .  T
C254        N261   1.157       .  T
C255        N259   1.157       .  T
C256        N262   1.157       .  T
C257        N266   1.157       .  T
C258        N264   1.157       .  T
C267        C268   1.410       .  A
C267        C272   1.416       .  A
C267        C285   1.449       .  S
C268        C273   1.502       .  S
C268        C269   1.409       .  A
C269        C270   1.411       .  A
C269        C274   1.450       .  S
C270        C271   1.415       .  A
C270        C286   1.449       .  S
C271        C272   1.416       .  A
C272        C275   1.447       .  S
C273        C276   1.408       .  A
C273        C280   1.413       .  A
C274        N291   1.157       .  T
C275        N293   1.157   1_545  T
C276        C277   1.415       .  A
C276        C281   1.450       .  S
C277        C278   1.421       .  A
C277        C283   1.451       .  S
C278        C279   1.415       .  A
C279        C280   1.413       .  A
C279        C282   1.450       .  S
C280        C284   1.452       .  S
C281        N288   1.157       .  T
C282        N289   1.157       .  T
C283        N287   1.157       .  T
C284        N290   1.157       .  T
C285        N294   1.157       .  T
C286        N292   1.157       .  T
C295        C296   1.412       .  A
C295        C300   1.416       .  A
C295        C313   1.450       .  S
C296        C301   1.502       .  S
C296        C297   1.408       .  A
C297        C298   1.411       .  A
C297        C302   1.451       .  S
C298        C299   1.421       .  A
C298        C314   1.452       .  S
C299        C300   1.419       .  A
C300        C303   1.452       .  S
C301        C304   1.409       .  A
C301        C308   1.411       .  A
C302        N319   1.157       .  T
C303        N321   1.158       .  T
C304        C305   1.412       .  A
C304        C309   1.452       .  S
C305        C306   1.421       .  A
C305        C311   1.452       .  S
C306        C307   1.412       .  A
C307        C308   1.416       .  A
C307        C310   1.445       .  S
C308        C312   1.450       .  S
C309        N316   1.157       .  T
C310        N317   1.156       .  T
C311        N315   1.157       .  T
C312        N318   1.157       .  T
C313        N322   1.157       .  T
C314        N320   1.157       .  T
C323        C324   1.413       .  A
C323        C328   1.410       .  A
C323        C341   1.452       .  S
C324        C329   1.495       .  S
C324        C325   1.408       .  A
C325        C326   1.412       .  A
C325        C330   1.450       .  S
C326        C327   1.417       .  A
C326        C342   1.451       .  S
C327        C328   1.412       .  A
C328        C331   1.451       .  S
C329        C332   1.407       .  A
C329        C336   1.409       .  A
C330        N347   1.157       .  T
C331        N349   1.157       .  T
C332        C333   1.409       .  A
C332        C337   1.450       .  S
C333        C334   1.415       .  A
C333        C339   1.449   1_545  S
C334        C335   1.416       .  A
C335        C336   1.412       .  A
C335       C1206   1.447       .  S
C336        C340   1.450       .  S
C337        N344   1.157   1_545  T
C338       C1203   1.447       .  S
C338        N345   1.157   1_655  T
C339        N343   1.156       .  T
C340        N346   1.157       .  T
C341        N350   1.157       .  T
C342        N348   1.157       .  T
C351        C352   1.412       .  A
C351        C356   1.412       .  A
C351        C369   1.452       .  S
C352        C357   1.503       .  S
C352        C353   1.410       .  A
C353        C354   1.414       .  A
C353        C358   1.451       .  S
C354        C355   1.422       .  A
C354        C370   1.451       .  S
C355        C356   1.420       .  A
C356        C359   1.452       .  S
C357        C360   1.409       .  A
C357        C364   1.413       .  A
C358        N375   1.157       .  T
C359        N377   1.157       .  T
C360        C361   1.409       .  A
C360        C365   1.453       .  S
C361        C362   1.422       .  A
C361        C367   1.452       .  S
C362        C363   1.412       .  A
C363        C364   1.417       .  A
C363        C366   1.447   1_545  S
C364        C368   1.450       .  S
C365        N372   1.157       .  T
C366        N373   1.157       .  T
C367       N1239   1.158       .  T
C368        N374   1.157   1_545  T
C369        N378   1.157       .  T
C370        N376   1.158       .  T
N371       C1235   1.158       .  T
C379        C380   1.409       .  A
C379        C384   1.413       .  A
C379        C397   1.450       .  S
C380        C385   1.503       .  S
C380        C381   1.413       .  A
C381        C382   1.414       .  A
C381        C386   1.451       .  S
C382        C383   1.417       .  A
C382        C398   1.451       .  S
C383        C384   1.418       .  A
C384        C387   1.452       .  S
C385        C388   1.410       .  A
C385        C392   1.409       .  A
C386        N403   1.157       .  T
C387        N405   1.157       .  T
C388        C389   1.416       .  A
C388        C393   1.450       .  S
C389        C390   1.411       .  A
C389        C395   1.442       .  S
C390        C391   1.420       .  A
C391        C392   1.412       .  A
C391        C394   1.451       .  S
C392        C396   1.452       .  S
C393        N400   1.157       .  T
C394        N401   1.157       .  T
C395        N399   1.155       .  T
C396        N402   1.157       .  T
C397        N406   1.157       .  T
C398        N404   1.157       .  T
C407        C408   1.415       .  A
C407        C412   1.411       .  A
C407        C425   1.451       .  S
C408        C413   1.505       .  S
C408        C409   1.413       .  A
C409        C410   1.413       .  A
C409        C414   1.450       .  S
C410        C411   1.413       .  A
C410        C426   1.450   1_556  S
C411        C412   1.409       .  A
C412        C415   1.449       .  S
C413        C416   1.410       .  A
C413        C420   1.414       .  A
C414        N431   1.157       .  T
C415        N433   1.156       .  T
C416        C417   1.415       .  A
C416        C421   1.451       .  S
C417        C418   1.423       .  A
C417        C423   1.450       .  S
C418        C419   1.419       .  A
C419        C420   1.411       .  A
C419        C422   1.452       .  S
C420        C424   1.452       .  S
C421        N428   1.157       .  T
C422        N429   1.157       .  T
C423        N427   1.157       .  T
C424        N430   1.157       .  T
C425        N434   1.157       .  T
C426        N432   1.157       .  T
O435        C450   1.258       .  A
O435       Al443   1.885       .  S
C436        O446   1.260       .  A
C436        O437   1.266       .  A
C436        C733   1.505       .  S
O437       Al439   1.925       .  S
O438        C440   1.258       .  A
O438       Al439   1.882       .  S
Al439       O447   1.898       .  S
Al439       O449   1.936       .  S
Al439       O448   1.789       .  S
C440        O453   1.264       .  A
C440        C789   1.500       .  S
O441        C451   1.257       .  A
O441       Al443   1.886       .  S
O442        C455   1.260       .  A
O442       Al452   1.895       .  S
Al443       O456   1.927       .  S
Al443       O453   1.924       .  S
Al443       O448   1.781       .  S
O444        C451   1.264       .  A
O444       Al452   1.931       .  S
O445        C454   1.263       .  A
O445       Al452   1.916       .  S
O446       Al452   1.887       .  S
O447        C454   1.262       .  A
O448       Al452   1.790       .  S
O449        C450   1.264       .  A
C450        C761   1.504       .  S
C451        C817   1.492       .  S
C454        C712   1.489       .  S
C455        O456   1.265       .  A
C455        C852   1.491       .  S
N457        C461   1.358       .  A
N457        C458   1.361       .  A
N457        C466   1.444       .  S
C458        C845   1.494   1_554  S
C458        C459   1.383       .  A
C459        C460   1.368       .  A
C459        H462   1.081       .  S
C460        C461   1.384       .  A
C460        H463   1.082       .  S
C461        C677   1.502       .  S
C464       N1337   1.362       .  A
C464        N470   1.440       .  S
N465        C466   1.360       .  A
C466        N467   1.363       .  A
N467       C1336   1.362   1_565  A
C468       N1335   1.359   1_545  A
C468        N477   1.440       .  S
N469       C1332   1.361   1_455  A
N470       C1342   1.361   1_556  A
N470        C471   1.358       .  A
C471        C768   1.483       .  S
C471        C472   1.377       .  A
C472       C1341   1.365       .  A
C472        H475   1.086       .  S
C473       C1340   1.366       .  A
C473        C474   1.379       .  A
C473        H476   1.082       .  S
C474        C649   1.480   1_655  S
C474       N1338   1.358       .  A
N477        C478   1.362       .  A
C478        C621   1.488   1_545  S
C478        C479   1.378       .  A
C479        H482   1.081       .  S
C480        C481   1.385   1_554  A
C480        H483   1.087       .  S
C481        C705   1.496       .  S
O484        C499   1.261       .  A
O484       Al492   1.905       .  S
C485        O495   1.261       .  A
C485        O486   1.261       .  A
C485        C656   1.507       .  S
O486       Al488   1.916       .  S
O487        C489   1.260       .  A
O487       Al488   1.897       .  S
Al488       O496   1.901       .  S
Al488       O498   1.915       .  S
Al488       O497   1.793       .  S
C489        O502   1.261       .  A
C489        C684   1.510       .  S
O490        C500   1.259       .  A
O490       Al492   1.893       .  S
O491        C504   1.260       .  A
O491       Al501   1.905       .  S
Al492       O505   1.914       .  S
Al492       O502   1.911       .  S
Al492       O497   1.788       .  S
O493        C500   1.264       .  A
O493       Al501   1.927       .  S
O494        C503   1.263       .  A
O494       Al501   1.917       .  S
O495       Al501   1.898       .  S
O496        C503   1.260       .  A
O497       Al501   1.790       .  S
O498        C499   1.263       .  A
C499        C593   1.497       .  S
C500        C628   1.518       .  S
C503        C537   1.495       .  S
C504        O505   1.262       .  A
C504        C572   1.500       .  S
N506        C510   1.357       .  A
N506        C507   1.360       .  A
N506        C517   1.440       .  S
C507        C824   1.496       .  S
C507        C508   1.385       .  A
C508        C509   1.371       .  A
C508        H511   1.083       .  S
C509        C510   1.382       .  A
C509        H512   1.079       .  S
C510        C600   1.498       .  S
C513        N514   1.363       .  A
C513        N952   1.357       .  A
N514        C515   1.359   1_455  A
C515       N1384   1.361       .  A
C515       N1387   1.438       .  S
N516       C1383   1.360       .  A
C517        N518   1.365       .  A
N518        C947   1.359   1_565  A
N519       C1391   1.356       .  A
N519        C520   1.354       .  A
N519       C1383   1.434       .  S
C520        C796   1.494       .  S
C520        C521   1.387       .  A
C521       C1390   1.373       .  A
C521        H524   1.081       .  S
C522       C1389   1.370       .  A
C522        C523   1.381       .  A
C522        H525   1.083       .  S
C523        C544   1.499   1_655  S
C523       N1387   1.357       .  A
N526        C527   1.362       .  A
C527        C565   1.499   1_545  S
C527        C528   1.382       .  A
C528        H531   1.081       .  S
C529        C530   1.387       .  A
C529        H532   1.087       .  S
C530        C740   1.500       .  S
C533        C534   1.409       .  A
C533        C538   1.414       .  A
C533        C551   1.451       .  S
C534        C539   1.500       .  S
C534        C535   1.411       .  A
C535        C536   1.411       .  A
C535        C540   1.452       .  S
C536        C537   1.416       .  A
C536        C552   1.450       .  S
C537        C538   1.419       .  A
C538        C541   1.449       .  S
C539        C542   1.410       .  A
C539        C546   1.410       .  A
C540        N557   1.157       .  T
C541        N559   1.157       .  T
C542        C543   1.413       .  A
C542        C547   1.451       .  S
C543        C544   1.421       .  A
C543        C549   1.449       .  S
C544        C545   1.415       .  A
C545        C546   1.410       .  A
C545        C548   1.449   1_455  S
C546        C550   1.451       .  S
C547        N554   1.157       .  T
C548        N555   1.156       .  T
C549        N553   1.157       .  T
C550        N556   1.157       .  T
C551        N560   1.157       .  T
C552        N558   1.157       .  T
C561        C562   1.411       .  A
C561        C566   1.415       .  A
C561        C579   1.450       .  S
C562        C567   1.503       .  S
C562        C563   1.410       .  A
C563        C564   1.412       .  A
C563        C568   1.450       .  S
C564        C565   1.416       .  A
C564        C580   1.449   1_565  S
C565        C566   1.417       .  A
C566        C569   1.449       .  S
C567        C570   1.410       .  A
C567        C574   1.411       .  A
C568        N585   1.157       .  T
C569        N587   1.158       .  T
C570        C571   1.417       .  A
C570        C575   1.450       .  S
C571        C572   1.420       .  A
C571        C577   1.450       .  S
C572        C573   1.418       .  A
C573        C574   1.411       .  A
C573        C576   1.450       .  S
C574        C578   1.452       .  S
C575        N582   1.157   1_455  T
C576        N583   1.157       .  T
C577        N581   1.157       .  T
C578        N584   1.157       .  T
C579        N588   1.157       .  T
C580        N586   1.156       .  T
C589        C590   1.411       .  A
C589        C594   1.410       .  A
C589        C607   1.453       .  S
C590        C595   1.500       .  S
C590        C591   1.409       .  A
C591        C592   1.415       .  A
C591        C596   1.450       .  S
C592        C593   1.420       .  A
C592        C608   1.449       .  S
C593        C594   1.417       .  A
C594        C597   1.450       .  S
C595        C598   1.410       .  A
C595        C602   1.408       .  A
C596        N613   1.157   1_565  T
C597        N615   1.157       .  T
C598        C599   1.412       .  A
C598        C603   1.450       .  S
C599        C600   1.414       .  A
C599        C605   1.450       .  S
C600        C601   1.420       .  A
C601        C602   1.412       .  A
C601        C604   1.448       .  S
C602        C606   1.451       .  S
C603        N610   1.157       .  T
C604        N611   1.157       .  T
C605        N609   1.157       .  T
C606        N612   1.157       .  T
C607        N616   1.157       .  T
C608        N614   1.157       .  T
C617        C618   1.410       .  A
C617        C622   1.413       .  A
C617        C635   1.450       .  S
C618        C623   1.502       .  S
C618        C619   1.411       .  A
C619        C620   1.413       .  A
C619        C624   1.450       .  S
C620        C621   1.413       .  A
C620        C636   1.449   1_565  S
C621        C622   1.414       .  A
C622        C625   1.449       .  S
C623        C626   1.408       .  A
C623        C630   1.405       .  A
C624        N641   1.157       .  T
C625        N643   1.157   1_554  T
C626        C627   1.413       .  A
C626        C631   1.453       .  S
C627        C628   1.429       .  A
C627        C633   1.452       .  S
C628        C629   1.430       .  A
C629        C630   1.417       .  A
C629        C632   1.451       .  S
C630        C634   1.451       .  S
C631        N638   1.157       .  T
C632        N639   1.158       .  T
C633        N637   1.158       .  T
C634        N640   1.157       .  T
C635        N644   1.157       .  T
C636        N642   1.156       .  T
C645        C646   1.411       .  A
C645        C650   1.410       .  A
C645        C663   1.450       .  S
C646        C651   1.499       .  S
C646        C647   1.412       .  A
C647        C648   1.411   1_455  A
C647        C652   1.450       .  S
C648        C649   1.412   1_655  A
C648       C1532   1.451       .  S
C649        C650   1.411       .  A
C650        C653   1.449       .  S
C651        C654   1.411       .  A
C651        C658   1.405       .  A
C652        N669   1.157   1_455  T
C653        N671   1.157   1_554  T
C654        C655   1.411       .  A
C654        C659   1.452       .  S
C655        C656   1.421       .  A
C655        C661   1.452       .  S
C656        C657   1.426       .  A
C657        C658   1.415       .  A
C657        C660   1.448       .  S
C658        C662   1.452       .  S
C659        N666   1.157       .  T
C660        N667   1.157       .  T
C661        N665   1.157       .  T
C662        N668   1.157       .  T
C663        N672   1.157       .  T
C664       C1516   1.448       .  S
C664        N670   1.157       .  T
C673        C674   1.408       .  A
C673        C678   1.414       .  A
C673        C691   1.451       .  S
C674        C679   1.499       .  S
C674        C675   1.408       .  A
C675        C676   1.409       .  A
C675        C680   1.452       .  S
C676        C677   1.417       .  A
C676        C692   1.448       .  S
C677        C678   1.423       .  A
C678        C681   1.450       .  S
C679        C682   1.410       .  A
C679        C686   1.405       .  A
C680        N697   1.157       .  T
C681        N699   1.158   1_554  T
C682        C683   1.413       .  A
C682        C687   1.452       .  S
C683        C684   1.425       .  A
C683        C689   1.452       .  S
C684        C685   1.427       .  A
C685        C686   1.412       .  A
C685        C688   1.450       .  S
C686        C690   1.452       .  S
C687        N694   1.157       .  T
C688        N695   1.157       .  T
C689        N693   1.158       .  T
C690        N696   1.157       .  T
C691        N700   1.157       .  T
C692        N698   1.156       .  T
C701        C702   1.408       .  A
C701        C706   1.414       .  A
C701        C719   1.450       .  S
C702        C707   1.497       .  S
C702        C703   1.408       .  A
C703        C704   1.408       .  A
C703        C708   1.451       .  S
C704        C705   1.417       .  A
C704        C720   1.450       .  S
C705        C706   1.418       .  A
C706        C709   1.447       .  S
C707        C710   1.408       .  A
C707        C714   1.413       .  A
C708        N725   1.157       .  T
C709        N727   1.157       .  T
C710        C711   1.413       .  A
C710        C715   1.450       .  S
C711        C712   1.419       .  A
C711        C717   1.451       .  S
C712        C713   1.413       .  A
C713        C714   1.410       .  A
C713        C716   1.451       .  S
C714        C718   1.451       .  S
C715        N722   1.157       .  T
C716        N723   1.157       .  T
C717        N721   1.157       .  T
C718        N724   1.157       .  T
C719        N728   1.157       .  T
C720        N726   1.157       .  T
C729        C730   1.409       .  A
C729        C734   1.412       .  A
C729        C747   1.452       .  S
C730        C735   1.499       .  S
C730        C731   1.407       .  A
C731        C732   1.413       .  A
C731        C736   1.451       .  S
C732        C733   1.424       .  A
C732        C748   1.451       .  S
C733        C734   1.424       .  A
C734        C737   1.452       .  S
C735        C738   1.408       .  A
C735        C742   1.411       .  A
C736        N753   1.157       .  T
C737        N755   1.158       .  T
C738        C739   1.408       .  A
C738        C743   1.453       .  S
C739        C740   1.423       .  A
C739        C745   1.453       .  S
C740        C741   1.414       .  A
C741        C742   1.416       .  A
C741        C744   1.447       .  S
C742        C746   1.450       .  S
C743        N750   1.157       .  T
C744        N751   1.157       .  T
C745        N749   1.158       .  T
C746        N752   1.157       .  T
C747        N756   1.157       .  T
C748        N754   1.158       .  T
C757        C758   1.409       .  A
C757        C762   1.407       .  A
C757        C775   1.454       .  S
C758        C763   1.499       .  S
C758        C759   1.408       .  A
C759        C760   1.417       .  A
C759        C764   1.450       .  S
C760        C761   1.422       .  A
C760        C776   1.450       .  S
C761        C762   1.424       .  A
C762        C765   1.453       .  S
C763        C766   1.409       .  A
C763        C770   1.412       .  A
C764        N781   1.157       .  T
C765        N783   1.158       .  T
C766        C767   1.410       .  A
C766        C771   1.451       .  S
C767        C768   1.415       .  A
C767        C773   1.451       .  S
C768        C769   1.410       .  A
C769        C770   1.412       .  A
C769       C1640   1.450       .  S
C770        C774   1.450       .  S
C771        N778   1.157       .  T
C772       C1637   1.447       .  S
C772        N779   1.157   1_655  T
C773        N777   1.157   1_556  T
C774        N780   1.157       .  T
C775        N784   1.157       .  T
C776        N782   1.157       .  T
C785        C786   1.408       .  A
C785        C790   1.409       .  A
C785        C803   1.453       .  S
C786        C791   1.494       .  S
C786        C787   1.406       .  A
C787        C788   1.412       .  A
C787        C792   1.451       .  S
C788        C789   1.423       .  A
C788        C804   1.450       .  S
C789        C790   1.423       .  A
C790        C793   1.452       .  S
C791        C794   1.406       .  A
C791        C798   1.410       .  A
C792        N809   1.157       .  T
C793        N811   1.157       .  T
C794        C795   1.406       .  A
C794        C799   1.452       .  S
C795        C796   1.421       .  A
C795        C801   1.452       .  S
C796        C797   1.414       .  A
C797        C798   1.414       .  A
C797        C800   1.447       .  S
C798        C802   1.450       .  S
C799        N806   1.157       .  T
C800        N807   1.157       .  T
C801       N1673   1.158       .  T
C802        N808   1.157       .  T
C803        N812   1.157       .  T
C804        N810   1.157       .  T
N805       C1669   1.157       .  T
C813        C814   1.410       .  A
C813        C818   1.413       .  A
C813        C831   1.450       .  S
C814        C819   1.500       .  S
C814        C815   1.411       .  A
C815        C816   1.410       .  A
C815        C820   1.452       .  S
C816        C817   1.417       .  A
C816        C832   1.451       .  S
C817        C818   1.415       .  A
C818        C821   1.448       .  S
C819        C822   1.413       .  A
C819        C826   1.409       .  A
C820        N837   1.157       .  T
C821        N839   1.156       .  T
C822        C823   1.415       .  A
C822        C827   1.450       .  S
C823        C824   1.411       .  A
C823        C829   1.446       .  S
C824        C825   1.421       .  A
C825        C826   1.409       .  A
C825        C828   1.452       .  S
C826        C830   1.452       .  S
C827        N834   1.157       .  T
C828        N835   1.158       .  T
C829        N833   1.156       .  T
C830        N836   1.157       .  T
C831        N840   1.157       .  T
C832        N838   1.157       .  T
C841        C842   1.409       .  A
C841        C846   1.410       .  A
C841        C859   1.452       .  S
C842        C847   1.498       .  S
C842        C843   1.411       .  A
C843        C844   1.413       .  A
C843        C848   1.450       .  S
C844        C845   1.410       .  A
C844        C860   1.445       .  S
C845        C846   1.422       .  A
C846        C849   1.452   1_556  S
C847        C850   1.410       .  A
C847        C854   1.411       .  A
C848        N865   1.157       .  T
C849        N867   1.158       .  T
C850        C851   1.413       .  A
C850        C855   1.450       .  S
C851        C852   1.417       .  A
C851        C857   1.450       .  S
C852        C853   1.415       .  A
C853        C854   1.410       .  A
C853        C856   1.448       .  S
C854        C858   1.453       .  S
C855        N862   1.157       .  T
C856        N863   1.156       .  T
C857        N861   1.157       .  T
C858        N864   1.157       .  T
C859        N868   1.157       .  T
C860        N866   1.156       .  T
O869        C884   1.261       .  A
O869       Al877   1.908       .  S
C870        O880   1.257       .  A
C870        O871   1.259       .  A
C870       C1167   1.501       .  S
O871       Al873   1.901       .  S
O872        C874   1.261       .  A
O872       Al873   1.904       .  S
Al873       O881   1.905       .  S
Al873       O883   1.906       .  S
Al873       O882   1.797       .  S
C874        O887   1.260       .  A
C874       C1223   1.498       .  S
O875        C885   1.259       .  A
O875       Al877   1.898       .  S
O876        C889   1.257       .  A
O876       Al886   1.885       .  S
Al877       O890   1.903       .  S
Al877       O887   1.899       .  S
Al877       O882   1.798       .  S
O878        C885   1.261       .  A
O878       Al886   1.906       .  S
O879        C888   1.261       .  A
O879       Al886   1.905       .  S
O880       Al886   1.891       .  S
O881        C888   1.263       .  A
O882       Al886   1.797       .  S
O883        C884   1.259       .  A
C884       C1195   1.497       .  S
C885       C1251   1.494       .  S
C888       C1146   1.494       .  S
C889        O890   1.259       .  A
C889       C1286   1.488       .  S
N891        C895   1.356       .  A
N891        C892   1.357   1_554  A
N891        C900   1.437       .  S
C892       C1279   1.488       .  S
C892        C893   1.384   1_556  A
C893        C894   1.368       .  A
C893        H896   1.087       .  S
C894        C895   1.379       .  A
C894        H897   1.082       .  S
C895       C1111   1.480       .  S
C898       N1333   1.365   1_545  A
C898        N904   1.443       .  S
N899       C1332   1.360       .  A
N899        C900   1.359       .  A
C900        N901   1.361   1_655  A
C902       N1337   1.360       .  A
C902        N911   1.439       .  S
N903       C1336   1.361       .  A
N904        C905   1.365       .  A
C905       C1202   1.503   1_554  S
C905        C906   1.387       .  A
C906        H909   1.082       .  S
C907        C908   1.378       .  A
C907        H910   1.080       .  S
C908       C1083   1.483       .  S
N911       C1349   1.360       .  A
N911        C912   1.361   1_556  A
C912       C1055   1.496       .  S
C912        C913   1.385   1_554  A
C913       C1348   1.366       .  A
C913        H916   1.083   1_556  S
C914       C1347   1.366       .  A
C914        C915   1.390       .  A
C914        H917   1.079       .  S
C915       C1139   1.505   1_554  S
C915       N1345   1.366       .  A
O918        C933   1.264       .  A
O918       Al926   1.913       .  S
C919        O929   1.263       .  A
C919        O920   1.258       .  A
C919       C1090   1.506       .  S
O920       Al922   1.894       .  S
O921        C923   1.258       .  A
O921       Al922   1.897       .  S
Al922       O930   1.900       .  S
Al922       O932   1.907       .  S
Al922       O931   1.783       .  S
C923        O936   1.259       .  A
C923       C1118   1.502       .  S
O924        C934   1.265       .  A
O924       Al926   1.908       .  S
O925        C938   1.262       .  A
O925       Al935   1.911       .  S
Al926       O939   1.904       .  S
Al926       O936   1.914       .  S
Al926       O931   1.792       .  S
O927        C934   1.264       .  A
O927       Al935   1.919       .  S
O928        C937   1.261       .  A
O928       Al935   1.908       .  S
O929       Al935   1.908       .  S
O930        C937   1.259       .  A
O931       Al935   1.790       .  S
O932        C933   1.263       .  A
C933       C1027   1.488       .  S
C934       C1062   1.492       .  S
C937        C971   1.497       .  S
C938        O939   1.260       .  A
C938       C1006   1.496       .  S
N940        C944   1.357       .  A
N940        C941   1.356       .  A
N940        C951   1.436       .  S
C941       C1258   1.496       .  S
C941        C942   1.386       .  A
C942        C943   1.373       .  A
C942        H945   1.084       .  S
C943        C944   1.382       .  A
C943        H946   1.083       .  S
C944       C1034   1.500       .  S
C947        N948   1.360       .  A
C947       N1394   1.438       .  S
N948        C949   1.355       .  A
N950       C1385   1.354       .  A
C951       N1384   1.356       .  A
C951        N952   1.360   1_655  A
N953        C954   1.363       .  A
C954       C1230   1.498       .  S
C954        C955   1.385       .  A
C955        H958   1.079       .  S
C956        C957   1.381       .  A
C956        H959   1.085       .  S
C957        C978   1.501       .  S
N960       C1398   1.361       .  A
N960        C961   1.356       .  A
N960       C1381   1.439       .  S
C961        C999   1.493       .  S
C961        C962   1.380       .  A
C962       C1397   1.371       .  A
C962        H965   1.080       .  S
C963       C1396   1.369       .  A
C963        C964   1.386       .  A
C963        H966   1.080       .  S
C964       C1174   1.495       .  S
C964       N1394   1.360       .  A
C967        C968   1.409       .  A
C967        C972   1.416       .  A
C967        C985   1.450       .  S
C968        C973   1.499       .  S
C968        C969   1.411       .  A
C969        C970   1.408       .  A
C969        C974   1.453       .  S
C970        C971   1.416       .  A
C970        C986   1.450       .  S
C971        C972   1.420       .  A
C972        C975   1.449       .  S
C973        C976   1.408       .  A
C973        C980   1.410       .  A
C974        N991   1.157       .  T
C975        N993   1.157       .  T
C976        C977   1.411       .  A
C976        C981   1.452       .  S
C977        C978   1.422       .  A
C977        C983   1.449       .  S
C978        C979   1.416       .  A
C979        C980   1.413       .  A
C979        C982   1.450       .  S
C980        C984   1.451       .  S
C981        N988   1.157       .  T
C982        N989   1.157       .  T
C983        N987   1.157       .  T
C984        N990   1.157       .  T
C985        N994   1.157       .  T
C986        N992   1.156       .  T
C995        C996   1.408       .  A
C995       C1000   1.410       .  A
C995       C1013   1.452       .  S
C996       C1001   1.495       .  S
C996        C997   1.410       .  A
C997        C998   1.411       .  A
C997       C1002   1.451       .  S
C998        C999   1.414       .  A
C998       C1014   1.449       .  S
C999       C1000   1.419       .  A
C1000      C1003   1.449       .  S
C1001      C1004   1.409       .  A
C1001      C1008   1.408       .  A
C1002      N1019   1.157       .  T
C1003      N1021   1.157       .  T
C1004      C1005   1.414       .  A
C1004      C1009   1.450       .  S
C1005      C1006   1.420       .  A
C1005      C1011   1.450       .  S
C1006      C1007   1.420       .  A
C1007      C1008   1.407       .  A
C1007      C1010   1.452       .  S
C1008      C1012   1.453       .  S
C1009      N1016   1.157       .  T
C1010      N1017   1.157       .  T
C1011      N1015   1.157       .  T
C1012      N1018   1.157       .  T
C1013      N1022   1.157       .  T
C1014      N1020   1.157       .  T
C1023      C1024   1.413       .  A
C1023      C1028   1.407       .  A
C1023      C1041   1.453       .  S
C1024      C1029   1.503       .  S
C1024      C1025   1.413       .  A
C1025      C1026   1.417       .  A
C1025      C1030   1.449       .  S
C1026      C1027   1.415       .  A
C1026      C1042   1.449       .  S
C1027      C1028   1.412       .  A
C1028      C1031   1.450       .  S
C1029      C1032   1.412       .  A
C1029      C1036   1.410       .  A
C1030      N1047   1.157       .  T
C1031      N1049   1.157       .  T
C1032      C1033   1.414       .  A
C1032      C1037   1.451       .  S
C1033      C1034   1.416       .  A
C1033      C1039   1.450       .  S
C1034      C1035   1.420       .  A
C1035      C1036   1.411       .  A
C1035      C1038   1.449       .  S
C1036      C1040   1.452       .  S
C1037      N1044   1.157       .  T
C1038      N1045   1.157       .  T
C1039      N1043   1.157       .  T
C1040      N1046   1.157       .  T
C1041      N1050   1.157       .  T
C1042      N1048   1.157       .  T
C1051      C1052   1.409       .  A
C1051      C1056   1.410       .  A
C1051      C1069   1.451       .  S
C1052      C1057   1.502       .  S
C1052      C1053   1.411       .  A
C1053      C1054   1.414       .  A
C1053      C1058   1.450       .  S
C1054      C1055   1.416       .  A
C1054      C1070   1.448       .  S
C1055      C1056   1.417       .  A
C1056      C1059   1.448       .  S
C1057      C1060   1.415       .  A
C1057      C1064   1.409       .  A
C1058      N1075   1.157       .  T
C1059      N1077   1.156       .  T
C1060      C1061   1.411       .  A
C1060      C1065   1.452       .  S
C1061      C1062   1.413       .  A
C1061      C1067   1.451       .  S
C1062      C1063   1.419       .  A
C1063      C1064   1.414       .  A
C1063      C1066   1.450       .  S
C1064      C1068   1.450       .  S
C1065      N1072   1.157       .  T
C1066      N1073   1.157       .  T
C1067      N1071   1.157       .  T
C1068      N1074   1.157       .  T
C1069      N1078   1.157       .  T
C1070      N1076   1.157       .  T
C1079      C1080   1.410       .  A
C1079      C1084   1.410       .  A
C1079      C1097   1.451       .  S
C1080      C1085   1.499       .  S
C1080      C1081   1.412       .  A
C1081      C1082   1.411       .  A
C1081      C1086   1.450       .  S
C1082      C1083   1.411       .  A
C1083      C1084   1.414       .  A
C1084      C1087   1.448       .  S
C1085      C1088   1.412       .  A
C1085      C1092   1.404       .  A
C1086      N1103   1.157       .  T
C1087      N1105   1.156   1_554  T
C1088      C1089   1.413       .  A
C1088      C1093   1.452       .  S
C1089      C1090   1.421       .  A
C1089      C1095   1.452       .  S
C1090      C1091   1.428       .  A
C1091      C1092   1.411       .  A
C1091      C1094   1.450       .  S
C1092      C1096   1.453       .  S
C1093      N1100   1.157       .  T
C1094      N1101   1.157       .  T
C1095      N1099   1.158       .  T
C1096      N1102   1.157       .  T
C1097      N1106   1.157       .  T
C1098      N1104   1.156       .  T
C1107      C1108   1.411       .  A
C1107      C1112   1.410       .  A
C1107      C1125   1.451       .  S
C1108      C1113   1.499       .  S
C1108      C1109   1.413       .  A
C1109      C1110   1.411       .  A
C1109      C1114   1.450       .  S
C1110      C1111   1.409       .  A
C1110      C1126   1.449       .  S
C1111      C1112   1.413       .  A
C1112      C1115   1.451       .  S
C1113      C1116   1.411       .  A
C1113      C1120   1.408       .  A
C1114      N1131   1.157       .  T
C1115      N1133   1.157   1_554  T
C1116      C1117   1.409       .  A
C1116      C1121   1.453       .  S
C1117      C1118   1.422       .  A
C1117      C1123   1.453       .  S
C1118      C1119   1.424       .  A
C1119      C1120   1.415       .  A
C1119      C1122   1.451       .  S
C1120      C1124   1.451       .  S
C1121      N1128   1.157       .  T
C1122      N1129   1.158       .  T
C1123      N1127   1.158       .  T
C1124      N1130   1.157       .  T
C1125      N1134   1.157       .  T
C1126      N1132   1.157       .  T
C1135      C1136   1.409       .  A
C1135      C1140   1.413       .  A
C1135      C1153   1.451       .  S
C1136      C1141   1.500       .  S
C1136      C1137   1.409       .  A
C1137      C1138   1.413       .  A
C1137      C1142   1.449       .  S
C1138      C1139   1.418       .  A
C1138      C1154   1.450       .  S
C1139      C1140   1.415       .  A
C1140      C1143   1.442       .  S
C1141      C1144   1.408       .  A
C1141      C1148   1.412       .  A
C1142      N1159   1.157       .  T
C1143      N1161   1.156   1_545  T
C1144      C1145   1.413       .  A
C1144      C1149   1.450       .  S
C1145      C1146   1.420       .  A
C1145      C1151   1.452       .  S
C1146      C1147   1.415       .  A
C1147      C1148   1.413       .  A
C1147      C1150   1.451       .  S
C1148      C1152   1.451       .  S
C1149      N1156   1.157       .  T
C1150      N1157   1.157       .  T
C1151      N1155   1.157       .  T
C1152      N1158   1.157       .  T
C1153      N1162   1.157       .  T
C1154      N1160   1.157   1_556  T
C1163      C1164   1.410       .  A
C1163      C1168   1.411       .  A
C1163      C1181   1.452       .  S
C1164      C1169   1.496       .  S
C1164      C1165   1.406       .  A
C1165      C1166   1.411       .  A
C1165      C1170   1.451       .  S
C1166      C1167   1.424       .  A
C1166      C1182   1.452       .  S
C1167      C1168   1.421       .  A
C1168      C1171   1.452       .  S
C1169      C1172   1.408       .  A
C1169      C1176   1.410       .  A
C1170      N1187   1.157       .  T
C1171      N1189   1.158       .  T
C1172      C1173   1.406       .  A
C1172      C1177   1.453       .  S
C1173      C1174   1.420       .  A
C1173      C1179   1.453       .  S
C1174      C1175   1.415       .  A
C1175      C1176   1.415       .  A
C1175      C1178   1.446       .  S
C1176      C1180   1.450       .  S
C1177      N1184   1.157       .  T
C1178      N1185   1.157       .  T
C1179      N1183   1.157       .  T
C1180      N1186   1.157       .  T
C1181      N1190   1.157       .  T
C1182      N1188   1.158       .  T
C1191      C1192   1.414       .  A
C1191      C1196   1.415       .  A
C1191      C1209   1.451       .  S
C1192      C1197   1.505       .  S
C1192      C1193   1.409       .  A
C1193      C1194   1.414       .  A
C1193      C1198   1.450       .  S
C1194      C1195   1.420       .  A
C1194      C1210   1.452       .  S
C1195      C1196   1.416       .  A
C1196      C1199   1.452       .  S
C1197      C1200   1.411       .  A
C1197      C1204   1.411       .  A
C1198      N1215   1.157   1_545  T
C1199      N1217   1.158       .  T
C1200      C1201   1.415       .  A
C1200      C1205   1.450       .  S
C1201      C1202   1.418       .  A
C1201      C1207   1.451   1_545  S
C1202      C1203   1.416       .  A
C1203      C1204   1.415       .  A
C1204      C1208   1.450       .  S
C1205      N1212   1.157       .  T
C1206      N1213   1.157       .  T
C1207      N1211   1.157   1_556  T
C1208      N1214   1.157       .  T
C1209      N1218   1.157       .  T
C1210      N1216   1.157       .  T
C1219      C1220   1.412       .  A
C1219      C1224   1.413       .  A
C1219      C1237   1.451       .  S
C1220      C1225   1.501       .  S
C1220      C1221   1.410       .  A
C1221      C1222   1.410       .  A
C1221      C1226   1.452       .  S
C1222      C1223   1.421       .  A
C1222      C1238   1.452       .  S
C1223      C1224   1.419       .  A
C1224      C1227   1.451       .  S
C1225      C1228   1.411       .  A
C1225      C1232   1.412       .  A
C1226      N1243   1.157       .  T
C1227      N1245   1.157       .  T
C1228      C1229   1.410       .  A
C1228      C1233   1.452       .  S
C1229      C1230   1.421       .  A
C1229      C1235   1.452       .  S
C1230      C1231   1.410       .  A
C1231      C1232   1.412       .  A
C1231      C1234   1.442       .  S
C1232      C1236   1.451       .  S
C1233      N1240   1.157       .  T
C1234      N1241   1.156   1_545  T
C1236      N1242   1.157       .  T
C1237      N1246   1.157       .  T
C1238      N1244   1.157       .  T
C1247      C1248   1.410       .  A
C1247      C1252   1.412       .  A
C1247      C1265   1.451       .  S
C1248      C1253   1.501       .  S
C1248      C1249   1.413       .  A
C1249      C1250   1.412       .  A
C1249      C1254   1.452       .  S
C1250      C1251   1.417       .  A
C1250      C1266   1.451       .  S
C1251      C1252   1.418       .  A
C1252      C1255   1.451       .  S
C1253      C1256   1.412       .  A
C1253      C1260   1.409       .  A
C1254      N1271   1.157       .  T
C1255      N1273   1.157       .  T
C1256      C1257   1.415       .  A
C1256      C1261   1.451       .  S
C1257      C1258   1.413       .  A
C1257      C1263   1.445   1_655  S
C1258      C1259   1.420       .  A
C1259      C1260   1.408       .  A
C1259      C1262   1.453       .  S
C1260      C1264   1.452       .  S
C1261      N1268   1.157   1_655  T
C1262      N1269   1.158       .  T
C1263      N1267   1.156       .  T
C1264      N1270   1.157       .  T
C1265      N1274   1.157       .  T
C1266      N1272   1.157       .  T
C1275      C1276   1.409       .  A
C1275      C1280   1.411       .  A
C1275      C1293   1.451       .  S
C1276      C1281   1.493       .  S
C1276      C1277   1.409       .  A
C1277      C1278   1.409       .  A
C1277      C1282   1.450       .  S
C1278      C1279   1.413       .  A
C1278      C1294   1.450       .  S
C1279      C1280   1.416       .  A
C1280      C1283   1.448       .  S
C1281      C1284   1.407       .  A
C1281      C1288   1.412       .  A
C1282      N1299   1.157       .  T
C1283      N1301   1.157       .  T
C1284      C1285   1.413       .  A
C1284      C1289   1.450       .  S
C1285      C1286   1.419       .  A
C1285      C1291   1.451       .  S
C1286      C1287   1.415       .  A
C1287      C1288   1.408       .  A
C1287      C1290   1.452       .  S
C1288      C1292   1.453       .  S
C1289      N1296   1.157   1_655  T
C1290      N1297   1.157       .  T
C1291      N1295   1.157       .  T
C1292      N1298   1.157       .  T
C1293      N1302   1.157       .  T
C1294      N1300   1.157   1_656  T
O1303      C1318   1.261       .  A
O1303     Al1311   1.895       .  S
C1304      O1314   1.259       .  A
C1304      O1305   1.259       .  A
C1304      C1601   1.509       .  S
O1305     Al1307   1.912       .  S
O1306      C1308   1.263       .  A
O1306     Al1307   1.898       .  S
Al1307     O1315   1.879       .  S
Al1307     O1317   1.908       .  S
Al1307     O1316   1.788       .  S
C1308      O1321   1.266       .  A
C1308      C1657   1.501       .  S
O1309      C1319   1.256       .  A
O1309     Al1311   1.881       .  S
O1310      C1323   1.257       .  A
O1310     Al1320   1.892       .  S
Al1311     O1324   1.934       .  S
Al1311     O1321   1.924       .  S
Al1311     O1316   1.790       .  S
O1312      C1319   1.267       .  A
O1312     Al1320   1.931       .  S
O1313      C1322   1.268       .  A
O1313     Al1320   1.940       .  S
O1314     Al1320   1.899       .  S
O1315      C1322   1.260       .  A
O1316     Al1320   1.787       .  S
O1317      C1318   1.260       .  A
C1318      C1629   1.499       .  S
C1319      C1685   1.484       .  S
C1322      C1580   1.507       .  S
C1323      O1324   1.264       .  A
C1323      C1720   1.487       .  S
N1325      C1329   1.360       .  A
N1325      C1326   1.363   1_554  A
N1325      C1334   1.442       .  S
C1326      C1713   1.498       .  S
C1326      C1327   1.385   1_556  A
C1327      C1328   1.368       .  A
C1327      H1330   1.081       .  S
C1328      C1329   1.379       .  A
C1328      H1331   1.078       .  S
C1329      C1545   1.485       .  S
C1332      N1338   1.438       .  S
N1333      C1334   1.363       .  A
C1334      N1335   1.362   1_655  A
C1336      N1345   1.440       .  S
N1338      C1339   1.359   1_554  A
C1339      C1636   1.488       .  S
C1339      C1340   1.384   1_556  A
C1340      H1343   1.084   1_554  S
C1341      C1342   1.386   1_556  A
C1341      H1344   1.082       .  S
C1342      C1517   1.497       .  S
N1345      C1346   1.359       .  A
C1346      C1489   1.483   1_545  S
C1346      C1347   1.375       .  A
C1347      H1350   1.081       .  S
C1348      C1349   1.378       .  A
C1348      H1351   1.088       .  S
C1349      C1573   1.485       .  S
O1352      C1367   1.260       .  A
O1352     Al1360   1.902       .  S
C1353      O1363   1.264       .  A
C1353      O1354   1.262       .  A
C1353      C1524   1.491       .  S
O1354     Al1356   1.908       .  S
O1355      C1357   1.260       .  A
O1355     Al1356   1.897       .  S
Al1356     O1364   1.907       .  S
Al1356     O1366   1.914       .  S
Al1356     O1365   1.784       .  S
C1357      O1370   1.264       .  A
C1357      C1552   1.507       .  S
O1358      C1368   1.261       .  A
O1358     Al1360   1.903       .  S
O1359      C1372   1.264       .  A
O1359     Al1369   1.905       .  S
Al1360     O1373   1.921       .  S
Al1360     O1370   1.928       .  S
Al1360     O1365   1.784       .  S
O1361      C1368   1.260       .  A
O1361     Al1369   1.915       .  S
O1362      C1371   1.263       .  A
O1362     Al1369   1.917       .  S
O1363     Al1369   1.908       .  S
O1364      C1371   1.261       .  A
O1365     Al1369   1.787       .  S
O1366      C1367   1.262       .  A
C1367      C1461   1.494       .  S
C1368      C1496   1.498       .  S
C1371      C1405   1.496       .  S
C1372      O1373   1.266       .  A
C1372      C1440   1.494       .  S
N1374      C1378   1.361       .  A
N1374      C1375   1.361       .  A
N1374      C1385   1.441       .  S
C1375      C1692   1.485       .  S
C1375      C1376   1.383       .  A
C1376      C1377   1.366       .  A
C1376      H1379   1.080       .  S
C1377      C1378   1.378       .  A
C1377      H1380   1.086       .  S
C1378      C1468   1.486       .  S
C1381      N1382   1.358       .  A
N1382      C1383   1.351       .  A
C1385      N1386   1.366   1_655  A
N1387      C1388   1.359       .  A
C1388      C1664   1.496       .  S
C1388      C1389   1.386       .  A
C1389      H1392   1.081       .  S
C1390      C1391   1.381       .  A
C1390      H1393   1.083       .  S
C1391      C1412   1.500       .  S
N1394      C1395   1.359       .  A
C1395      C1433   1.498   1_545  S
C1395      C1396   1.381       .  A
C1396      H1399   1.082       .  S
C1397      C1398   1.386       .  A
C1397      H1400   1.084       .  S
C1398      C1608   1.495       .  S
C1401      C1402   1.409       .  A
C1401      C1406   1.415       .  A
C1401      C1419   1.449       .  S
C1402      C1407   1.500       .  S
C1402      C1403   1.411       .  A
C1403      C1404   1.410       .  A
C1403      C1408   1.452       .  S
C1404      C1405   1.417       .  A
C1404      C1420   1.451       .  S
C1405      C1406   1.419       .  A
C1406      C1409   1.450       .  S
C1407      C1410   1.407       .  A
C1407      C1414   1.410       .  A
C1408      N1425   1.157       .  T
C1409      N1427   1.158       .  T
C1410      C1411   1.412       .  A
C1410      C1415   1.451       .  S
C1411      C1412   1.421       .  A
C1411      C1417   1.448       .  S
C1412      C1413   1.415       .  A
C1413      C1414   1.413       .  A
C1413      C1416   1.450       .  S
C1414      C1418   1.450       .  S
C1415      N1422   1.157       .  T
C1416      N1423   1.157       .  T
C1417      N1421   1.157       .  T
C1418      N1424   1.157       .  T
C1419      N1428   1.157       .  T
C1420      N1426   1.157       .  T
C1429      C1430   1.410       .  A
C1429      C1434   1.412       .  A
C1429      C1447   1.452       .  S
C1430      C1435   1.501       .  S
C1430      C1431   1.409       .  A
C1431      C1432   1.412       .  A
C1431      C1436   1.451       .  S
C1432      C1433   1.416       .  A
C1432      C1448   1.448   1_565  S
C1433      C1434   1.419       .  A
C1434      C1437   1.448       .  S
C1435      C1438   1.410       .  A
C1435      C1442   1.411       .  A
C1436      N1453   1.157       .  T
C1437      N1455   1.157       .  T
C1438      C1439   1.416       .  A
C1438      C1443   1.450       .  S
C1439      C1440   1.419       .  A
C1439      C1445   1.450       .  S
C1440      C1441   1.416       .  A
C1441      C1442   1.409       .  A
C1441      C1444   1.451       .  S
C1442      C1446   1.453       .  S
C1443      N1450   1.157       .  T
C1444      N1451   1.157       .  T
C1445      N1449   1.157       .  T
C1446      N1452   1.157       .  T
C1447      N1456   1.157       .  T
C1448      N1454   1.156       .  T
C1457      C1458   1.410       .  A
C1457      C1462   1.408       .  A
C1457      C1475   1.453       .  S
C1458      C1463   1.497       .  S
C1458      C1459   1.408       .  A
C1459      C1460   1.416       .  A
C1459      C1464   1.449       .  S
C1460      C1461   1.420       .  A
C1460      C1476   1.450       .  S
C1461      C1462   1.416       .  A
C1462      C1465   1.449       .  S
C1463      C1466   1.410       .  A
C1463      C1470   1.409       .  A
C1464      N1481   1.157   1_565  T
C1465      N1483   1.156       .  T
C1466      C1467   1.410       .  A
C1466      C1471   1.450       .  S
C1467      C1468   1.410       .  A
C1467      C1473   1.450       .  S
C1468      C1469   1.414       .  A
C1469      C1470   1.412       .  A
C1469      C1472   1.447       .  S
C1470      C1474   1.451       .  S
C1471      N1478   1.157       .  T
C1472      N1479   1.156       .  T
C1473      N1477   1.157       .  T
C1474      N1480   1.157       .  T
C1475      N1484   1.157       .  T
C1476      N1482   1.157       .  T
C1485      C1486   1.410       .  A
C1485      C1490   1.410       .  A
C1485      C1503   1.450       .  S
C1486      C1491   1.499       .  S
C1486      C1487   1.413       .  A
C1487      C1488   1.412       .  A
C1487      C1492   1.450       .  S
C1488      C1489   1.409       .  A
C1488      C1504   1.449   1_565  S
C1489      C1490   1.413       .  A
C1490      C1493   1.451       .  S
C1491      C1494   1.411       .  A
C1491      C1498   1.409       .  A
C1492      N1509   1.157       .  T
C1493      N1511   1.157   1_554  T
C1494      C1495   1.408       .  A
C1494      C1499   1.453       .  S
C1495      C1496   1.419       .  A
C1495      C1501   1.452       .  S
C1496      C1497   1.422       .  A
C1497      C1498   1.415       .  A
C1497      C1500   1.451       .  S
C1498      C1502   1.451       .  S
C1499      N1506   1.157   1_565  T
C1500      N1507   1.158       .  T
C1501      N1505   1.157       .  T
C1502      N1508   1.157       .  T
C1503      N1512   1.157       .  T
C1504      N1510   1.157       .  T
C1513      C1514   1.407       .  A
C1513      C1518   1.410       .  A
C1513      C1531   1.451       .  S
C1514      C1519   1.496       .  S
C1514      C1515   1.409       .  A
C1515      C1516   1.413       .  A
C1515      C1520   1.451       .  S
C1516      C1517   1.418       .  A
C1517      C1518   1.417       .  A
C1518      C1521   1.449       .  S
C1519      C1522   1.412       .  A
C1519      C1526   1.406       .  A
C1520      N1537   1.157       .  T
C1521      N1539   1.157       .  T
C1522      C1523   1.411       .  A
C1522      C1527   1.451       .  S
C1523      C1524   1.415       .  A
C1523      C1529   1.451       .  S
C1524      C1525   1.419       .  A
C1525      C1526   1.410       .  A
C1525      C1528   1.449       .  S
C1526      C1530   1.451       .  S
C1527      N1534   1.157       .  T
C1528      N1535   1.156       .  T
C1529      N1533   1.157       .  T
C1530      N1536   1.157       .  T
C1531      N1540   1.157       .  T
C1532      N1538   1.157       .  T
C1541      C1542   1.410       .  A
C1541      C1546   1.412       .  A
C1541      C1559   1.451       .  S
C1542      C1547   1.502       .  S
C1542      C1543   1.412       .  A
C1543      C1544   1.413       .  A
C1543      C1548   1.450       .  S
C1544      C1545   1.410       .  A
C1544      C1560   1.450       .  S
C1545      C1546   1.415       .  A
C1546      C1549   1.450       .  S
C1547      C1550   1.410       .  A
C1547      C1554   1.407       .  A
C1548      N1565   1.157       .  T
C1549      N1567   1.157   1_554  T
C1550      C1551   1.412       .  A
C1550      C1555   1.453       .  S
C1551      C1552   1.423       .  A
C1551      C1557   1.452       .  S
C1552      C1553   1.423       .  A
C1553      C1554   1.416       .  A
C1553      C1556   1.449       .  S
C1554      C1558   1.451       .  S
C1555      N1562   1.157       .  T
C1556      N1563   1.157       .  T
C1557      N1561   1.158       .  T
C1558      N1564   1.157       .  T
C1559      N1568   1.157       .  T
C1560      N1566   1.157       .  T
C1569      C1570   1.412       .  A
C1569      C1574   1.413       .  A
C1569      C1587   1.450       .  S
C1570      C1575   1.503       .  S
C1570      C1571   1.411       .  A
C1571      C1572   1.412       .  A
C1571      C1576   1.450       .  S
C1572      C1573   1.413       .  A
C1572      C1588   1.449       .  S
C1573      C1574   1.411       .  A
C1574      C1577   1.450       .  S
C1575      C1578   1.408       .  A
C1575      C1582   1.411       .  A
C1576      N1593   1.157       .  T
C1577      N1595   1.157       .  T
C1578      C1579   1.417       .  A
C1578      C1583   1.450       .  S
C1579      C1580   1.424       .  A
C1579      C1585   1.450       .  S
C1580      C1581   1.423       .  A
C1581      C1582   1.410       .  A
C1581      C1584   1.453       .  S
C1582      C1586   1.453       .  S
C1583      N1590   1.157       .  T
C1584      N1591   1.158       .  T
C1585      N1589   1.158       .  T
C1586      N1592   1.157       .  T
C1587      N1596   1.157       .  T
C1588      N1594   1.157   1_556  T
C1597      C1598   1.407       .  A
C1597      C1602   1.412       .  A
C1597      C1615   1.452       .  S
C1598      C1603   1.497       .  S
C1598      C1599   1.407       .  A
C1599      C1600   1.411       .  A
C1599      C1604   1.453       .  S
C1600      C1601   1.427       .  A
C1600      C1616   1.452       .  S
C1601      C1602   1.426       .  A
C1602      C1605   1.451       .  S
C1603      C1606   1.408       .  A
C1603      C1610   1.410       .  A
C1604      N1621   1.157       .  T
C1605      N1623   1.158       .  T
C1606      C1607   1.406       .  A
C1606      C1611   1.453       .  S
C1607      C1608   1.422       .  A
C1607      C1613   1.453       .  S
C1608      C1609   1.415       .  A
C1609      C1610   1.415       .  A
C1609      C1612   1.447       .  S
C1610      C1614   1.450       .  S
C1611      N1618   1.157       .  T
C1612      N1619   1.157       .  T
C1613      N1617   1.158       .  T
C1614      N1620   1.157       .  T
C1615      N1624   1.157       .  T
C1616      N1622   1.158       .  T
C1625      C1626   1.412       .  A
C1625      C1630   1.410       .  A
C1625      C1643   1.453       .  S
C1626      C1631   1.496       .  S
C1626      C1627   1.406       .  A
C1627      C1628   1.413       .  A
C1627      C1632   1.451       .  S
C1628      C1629   1.425       .  A
C1628      C1644   1.452       .  S
C1629      C1630   1.419       .  A
C1630      C1633   1.451       .  S
C1631      C1634   1.409       .  A
C1631      C1638   1.410       .  A
C1632      N1649   1.157       .  T
C1633      N1651   1.157       .  T
C1634      C1635   1.409       .  A
C1634      C1639   1.450       .  S
C1635      C1636   1.413       .  A
C1635      C1641   1.450       .  S
C1636      C1637   1.414       .  A
C1637      C1638   1.412       .  A
C1638      C1642   1.450       .  S
C1639      N1646   1.157       .  T
C1640      N1647   1.157       .  T
C1641      N1645   1.157   1_556  T
C1642      N1648   1.157       .  T
C1643      N1652   1.157       .  T
C1644      N1650   1.158       .  T
C1653      C1654   1.412       .  A
C1653      C1658   1.413       .  A
C1653      C1671   1.452       .  S
C1654      C1659   1.503       .  S
C1654      C1655   1.409       .  A
C1655      C1656   1.413       .  A
C1655      C1660   1.451       .  S
C1656      C1657   1.422       .  A
C1656      C1672   1.452       .  S
C1657      C1658   1.419       .  A
C1658      C1661   1.451       .  S
C1659      C1662   1.410       .  A
C1659      C1666   1.414       .  A
C1660      N1677   1.157       .  T
C1661      N1679   1.157       .  T
C1662      C1663   1.407       .  A
C1662      C1667   1.453       .  S
C1663      C1664   1.420       .  A
C1663      C1669   1.453       .  S
C1664      C1665   1.412       .  A
C1665      C1666   1.417       .  A
C1665      C1668   1.447       .  S
C1666      C1670   1.449       .  S
C1667      N1674   1.157       .  T
C1668      N1675   1.157       .  T
C1670      N1676   1.157       .  T
C1671      N1680   1.157       .  T
C1672      N1678   1.158       .  T
C1681      C1682   1.408       .  A
C1681      C1686   1.413       .  A
C1681      C1699   1.449       .  S
C1682      C1687   1.498       .  S
C1682      C1683   1.417       .  A
C1683      C1684   1.408       .  A
C1683      C1688   1.453       .  S
C1684      C1685   1.408       .  A
C1684      C1700   1.450       .  S
C1685      C1686   1.417       .  A
C1686      C1689   1.451       .  S
C1687      C1690   1.409       .  A
C1687      C1694   1.406       .  A
C1688      N1705   1.157       .  T
C1689      N1707   1.157       .  T
C1690      C1691   1.413       .  A
C1690      C1695   1.449       .  S
C1691      C1692   1.415       .  A
C1691      C1697   1.450       .  S
C1692      C1693   1.417       .  A
C1693      C1694   1.408       .  A
C1693      C1696   1.446       .  S
C1694      C1698   1.452       .  S
C1695      N1702   1.157   1_655  T
C1696      N1703   1.156       .  T
C1697      N1701   1.157   1_655  T
C1698      N1704   1.157       .  T
C1699      N1708   1.157   1_655  T
C1700      N1706   1.157       .  T
C1709      C1710   1.412       .  A
C1709      C1714   1.414       .  A
C1709      C1727   1.450       .  S
C1710      C1715   1.503       .  S
C1710      C1711   1.409       .  A
C1711      C1712   1.412       .  A
C1711      C1716   1.450       .  S
C1712      C1713   1.417       .  A
C1712      C1728   1.449   1_655  S
C1713      C1714   1.416       .  A
C1714      C1717   1.448       .  S
C1715      C1718   1.410       .  A
C1715      C1722   1.415       .  A
C1716      N1733   1.157   1_655  T
C1717      N1735   1.158       .  T
C1718      C1719   1.414       .  A
C1718      C1723   1.450       .  S
C1719      C1720   1.414       .  A
C1719      C1725   1.448       .  S
C1720      C1721   1.411       .  A
C1721      C1722   1.413       .  A
C1721      C1724   1.451       .  S
C1722      C1726   1.451       .  S
C1723      N1730   1.157       .  T
C1724      N1731   1.157       .  T
C1725      N1729   1.156       .  T
C1726      N1732   1.157       .  T
C1727      N1736   1.157       .  T
C1728      N1734   1.157       .  T
