geometry optimzed in LAMMPS
_audit_creation_date              2020-11-30 
_audit_creation_method            'lammps2cif' 
_symmetry_space_group_name_H-M    'P1' 
_symmetry_Int_Tables_number       1 
_symmetry_cell_setting            triclinic 
loop_ 
_symmetry_equiv_pos_as_xyz 
  x,y,z 
_cell_length_a                    24.60316025 
_cell_length_b                    24.50308973275057 
_cell_length_c                    53.0425539373219 
_cell_angle_alpha                 89.99444937618294 
_cell_angle_beta                  89.97532028520469 
_cell_angle_gamma                 119.90066692333478 
loop_ 
_atom_site_label 
_atom_site_type_symbol 
_atom_site_fract_x 
_atom_site_fract_y 
_atom_site_fract_z 
_atom_site_charge 
O1          O  0.34756623  0.09027307  0.34156210    -0.81900
O2          O  0.45142967  0.20132349  0.35299916    -0.78900
C3          C  0.44858521  0.24082747  0.33838169     1.01600
O4          O  0.40997329  0.25936313  0.34207893    -0.79000
O5          O  0.29962031  0.25259641  0.35397072    -0.81600
C6          C  0.26125995  0.21126333  0.33883463     1.06100
O7          O  0.24266705  0.15382812  0.34207668    -0.74400
O8          O  0.24888373  0.04893548  0.35308037    -0.74600
C9          C  0.29045462  0.05149870  0.33818432     1.06100
O10         O  0.32269619  0.05654228  0.39379583    -0.81900
O11         O  0.41869649  0.17132005  0.40632707    -0.78900
C12         C  0.44564707  0.22949268  0.41039947     1.01600
O13         O  0.44384268  0.26616287  0.39409604    -0.79000
O14         O  0.32937238  0.24709284  0.40712590    -0.81600
C15         C  0.27142392  0.21571196  0.41113980     1.06100
O16         O  0.23506635  0.17840897  0.39451346    -0.75200
O17         O  0.25326059  0.08143759  0.40644731    -0.74500
C18         C  0.28434973  0.05426543  0.41022125     1.06000
Cr19       Cr  0.38198585  0.13265505  0.37364828     1.93700
Cr20       Cr  0.36791261  0.25038751  0.37426626     1.93200
Cr21       Cr  0.25082229  0.11880568  0.37397985     1.39100
O22         O  0.33357819  0.16725234  0.37355945    -1.19600
N23         N  0.28688010  0.27112263  0.00202850     0.00000
C24         C  0.25873654  0.23395772  0.48187056     0.02600
C25         C  0.20622429  0.17877324  0.48935907    -0.20300
C26         C  0.20316958  0.18166241  0.01500229    -0.20500
C27         C  0.25208054  0.23994681  0.02241768     0.02500
H28         H  0.17523212  0.13927139  0.47763568     0.16300
H29         H  0.16609453  0.14629202  0.02652891     0.16300
C30         C  0.49696523  0.05265124  0.00032829     0.83700
N31         N  0.44313552  0.49626419  0.00102809    -0.74600
C32         C  0.44539040  0.44201357  0.00085084     0.86100
N33         N  0.50171130  0.44438671  0.00012105    -0.74600
C34         C  0.05645590  0.00011274  0.99998099     0.86200
N35         N  0.05465044  0.05460855  0.99950211    -0.76300
N36         N  0.48708122  0.21305526  0.00109123     0.00000
C37         C  0.47861228  0.24128112  0.48082135     0.02600
C38         C  0.47674657  0.29426421  0.48852213    -0.20300
C39         C  0.99518209  0.30389201  0.01288015    -0.20500
C40         C  0.99959251  0.25191999  0.02025899     0.02500
H41         H  0.46930160  0.32625649  0.47692504     0.16300
H42         H  0.99945428  0.34197512  0.02456461     0.16300
N43         N  0.22548084  0.50936285  0.50074799     0.00000
C44         C  0.25564999  0.50314083  0.02097545     0.02600
C45         C  0.31271363  0.50956795  0.01363416    -0.20300
C46         C  0.31673804  0.01910802  0.48798064    -0.20500
C47         C  0.26232531  0.01794750  0.48044429     0.02500
H48         H  0.34707754  0.50645610  0.02529895     0.16300
H49         H  0.35600649  0.02674439  0.47632719     0.16300
O50         O  0.05490157  0.32129653  0.14314089    -0.81900
O51         O  0.16914563  0.41710272  0.15636146    -0.78900
C52         C  0.22696280  0.44347290  0.16066813     1.01600
O53         O  0.26371484  0.44210879  0.14432014    -0.79000
O54         O  0.24534776  0.32718882  0.15690527    -0.81600
C55         C  0.21431655  0.26897152  0.16088229     1.06100
O56         O  0.17576932  0.23248865  0.14461549    -0.74400
O57         O  0.07972970  0.25203368  0.15626248    -0.74600
C58         C  0.05258135  0.28327153  0.15976922     1.06100
O59         O  0.09027574  0.34675324  0.09118502    -0.81900
O60         O  0.20026094  0.45094265  0.10312461    -0.78900
C61         C  0.23887339  0.44752521  0.08827567     1.01600
O62         O  0.25732644  0.40876314  0.09200024    -0.79000
O63         O  0.25056223  0.29784764  0.10375834    -0.81600
C64         C  0.20918282  0.25848860  0.08890136     1.06100
O65         O  0.15201164  0.23992390  0.09217413    -0.74400
O66         O  0.04823621  0.24760025  0.10277689    -0.74500
C67         C  0.05183787  0.28941549  0.08766716     1.06000
Cr68       Cr  0.13142560  0.38089847  0.12345638     1.93700
Cr69       Cr  0.24837041  0.36629144  0.12418577     1.93200
Cr70       Cr  0.11709384  0.24894790  0.12392573     1.39100
O71         O  0.16565277  0.33200030  0.12347810    -1.19600
N72         N  0.27499896  0.28495619  0.25120019     0.00000
C73         C  0.23815580  0.25562366  0.23104112     0.02600
C74         C  0.18474293  0.20143809  0.23872744    -0.20300
C75         C  0.18942553  0.19734883  0.26436011    -0.20500
C76         C  0.24543861  0.24945903  0.27166369     0.02500
H77         H  0.14584862  0.16873455  0.22717701     0.16300
H78         H  0.15609563  0.15911401  0.27606317     0.16300
C79         C  0.00207915  0.05781875  0.25042870     0.83700
N80         N  0.44542784  0.50381063  0.25017666    -0.74600
C81         C  0.44286865  0.44711849  0.25021710     0.86100
N82         N  0.49680399  0.44467202  0.25046162    -0.74600
C83         C  0.05404363  0.49869877  0.25116315     0.86200
N84         N  0.05593725  0.05514331  0.25072386    -0.76300
N85         N  0.00990801  0.22726451  0.25038869     0.00000
C86         C  0.50667088  0.25899268  0.27156806     0.02600
C87         C  0.51283419  0.31610750  0.26406326    -0.20300
C88         C  0.02028833  0.31901459  0.23733867    -0.20500
C89         C  0.01811322  0.26377201  0.22999796     0.02500
H90         H  0.50964755  0.35074660  0.27560813     0.16300
H91         H  0.02783990  0.35816375  0.22551757     0.16300
N92         N  0.21148788  0.48436570  0.25170271     0.00000
C93         C  0.23787693  0.47307667  0.23142307     0.02600
C94         C  0.28846067  0.46705767  0.23893935    -0.20300
C95         C  0.29418679  0.97753995  0.26442658    -0.20500
C96         C  0.24602640  0.98806268  0.27185774     0.02500
H97         H  0.31818615  0.45674553  0.22720651     0.16300
H98         H  0.33091163  0.97846688  0.27590594     0.16300
C99         C  0.11112012  0.49572289  0.25147460    -0.09800
C100        C  0.15794016  0.49129630  0.25162355    -0.11400
C101        C  0.00458748  0.11784327  0.25042032    -0.09800
C102        C  0.00675361  0.16823495  0.25045137    -0.11400
C103        C  0.33321920  0.34131176  0.25086860    -0.09800
C104        C  0.38316491  0.38966928  0.25051594    -0.11400
C105        C  0.02927238  0.24987665  0.20402203    -0.13000
C106        C  0.02222951  0.27967283  0.18404268    -0.28100
H107        H  0.04898551  0.21919504  0.20159937     0.16100
H108        H  0.00114574  0.30913612  0.18640374     0.16600
C109        C  0.25183614  0.47174797  0.18548499    -0.13000
C110        C  0.21406541  0.46378658  0.20523949    -0.28100
H111        H  0.30195351  0.49210278  0.18839220     0.16100
H112        H  0.16412023  0.44500238  0.20242142     0.16600
C113        C  0.21935641  0.24314412  0.18521655    -0.13000
C114        C  0.24978006  0.28048617  0.20498787    -0.28100
H115        H  0.19092184  0.19256897  0.18774901     0.16100
H116        H  0.27938025  0.33094651  0.20238034     0.16600
C117        C  0.22867848  0.48511332  0.04672946    -0.13000
C118        C  0.26485373  0.48917524  0.06643243    -0.28100
H119        H  0.17801133  0.46079590  0.04885486     0.16100
H120        H  0.31531805  0.51196157  0.06420585     0.16600
C121        C  0.01632273  0.24200414  0.04606426    -0.13000
C122        C  0.01067087  0.27329949  0.06574969    -0.28100
H123        H  0.04114135  0.21598795  0.04828099     0.16100
H124        H  0.98718545  0.30047879  0.06338293     0.16600
C125        C  0.16657032  0.50592312  0.50054627    -0.09800
C126        C  0.11630155  0.50357445  0.50041352    -0.11400
C127        C  0.49116277  0.15771648  0.00094208    -0.09800
C128        C  0.49413627  0.10995237  0.00068323    -0.11400
C129        C  0.22560672  0.23167939  0.06756154    -0.13000
C130        C  0.25911673  0.26747212  0.04798951    -0.28100
H131        H  0.19783627  0.18099335  0.06551250     0.16100
H132        H  0.28534712  0.31838002  0.04996200     0.16600
C133        C  0.34109380  0.33111789  0.00183043    -0.09800
C134        C  0.38827085  0.38206588  0.00147055    -0.11400
C135        C  0.24975340  0.03045552  0.45443411    -0.13000
C136        C  0.27986216  0.02352383  0.43454323    -0.28100
H137        H  0.21971561  0.05082238  0.45193967     0.16100
H138        H  0.30868464  0.00180926  0.43700119     0.16600
C139        C  0.27438682  0.00837367  0.31681024    -0.13000
C140        C  0.23970696  0.00927141  0.29741425    -0.28100
H141        H  0.30281736  0.98623408  0.31469933     0.16100
H142        H  0.21287686  0.03327524  0.29947483     0.16600
C143        C  0.47526800  0.25488408  0.43492936    -0.13000
C144        C  0.46741467  0.21708701  0.45468534    -0.28100
H145        H  0.49673847  0.30538494  0.43764061     0.16100
H146        H  0.44727460  0.16671198  0.45195162     0.16600
C147        C  0.48836828  0.23187582  0.29726614    -0.13000
C148        C  0.49074421  0.26776881  0.31681821    -0.28100
H149        H  0.46499812  0.18103701  0.29940648     0.16100
H150        H  0.51246940  0.31836501  0.31459584     0.16600
C151        C  0.23586415  0.22803000  0.31716400    -0.13000
C152        C  0.27233896  0.25933321  0.29740775    -0.28100
H153        H  0.18535217  0.20101024  0.31490380     0.16100
H154        H  0.32302357  0.28517805  0.29949356     0.16600
C155        C  0.28332213  0.24757049  0.45578829    -0.13000
C156        C  0.24593389  0.21848145  0.43588537    -0.28100
H157        H  0.33348200  0.27797947  0.45316704     0.16100
H158        H  0.19563815  0.18935547  0.43852193     0.16600
O159        O  0.34893792  0.09014514  0.84145313    -0.81900
O160        O  0.45261487  0.20111453  0.85300520    -0.78900
C161        C  0.44969214  0.24047601  0.83832808     1.01600
O162        O  0.41098366  0.25892698  0.84197278    -0.79000
O163        O  0.30064376  0.25233062  0.85392200    -0.81600
C164        C  0.26223634  0.21107156  0.83877816     1.06100
O165        O  0.24380760  0.15365203  0.84194734    -0.74400
O166        O  0.25013375  0.04884288  0.85279957    -0.74600
C167        C  0.29181403  0.05170707  0.83789811     1.06100
O168        O  0.32380651  0.05605235  0.89367968    -0.81900
O169        O  0.41962051  0.17093506  0.90631150    -0.78900
C170        C  0.44657226  0.22913454  0.91033518     1.01600
O171        O  0.44489014  0.26572224  0.89396338    -0.79000
O172        O  0.33038055  0.24663705  0.90705053    -0.81600
C173        C  0.27243496  0.21512001  0.91108413     1.06100
O174        O  0.23607865  0.17777311  0.89446479    -0.75200
O175        O  0.25409691  0.08064707  0.90624129    -0.74500
C176        C  0.28520904  0.05351330  0.91004568     1.06000
Cr177      Cr  0.38312081  0.13232519  0.87359202     1.93700
Cr178      Cr  0.36894067  0.24999063  0.87417561     1.93200
Cr179      Cr  0.25189874  0.11838836  0.87381915     1.39100
O180        O  0.33464272  0.16685740  0.87346817    -1.19600
N181        N  0.28613284  0.27134546  0.50211521     0.00000
C182        C  0.25991874  0.23348333  0.98180923     0.02600
C183        C  0.20831774  0.17761318  0.98937468    -0.20300
C184        C  0.20094993  0.18300842  0.51496539    -0.20500
C185        C  0.25071132  0.24067269  0.52244927     0.02500
H186        H  0.17790095  0.13774914  0.97769370     0.16300
H187        H  0.16323924  0.14827778  0.52644689     0.16300
C188        C  0.49693185  0.05207820  0.49963007     0.83700
N189        N  0.44317963  0.49570244  0.50045277    -0.74600
C190        C  0.44557236  0.44151935  0.50058799     0.86100
N191        N  0.50198065  0.44402092  0.50015029    -0.74600
C192        C  0.05682943  0.00192465  0.50032812     0.86200
N193        N  0.05487718  0.05634083  0.49977979    -0.76300
N194        N  0.48711143  0.21251595  0.50098296     0.00000
C195        C  0.47879302  0.24156252  0.98079339     0.02600
C196        C  0.47659411  0.29450485  0.98830005    -0.20300
C197        C  0.99031697  0.30284451  0.51327727    -0.20500
C198        C  0.99648228  0.25181935  0.52059003     0.02500
H199        H  0.46915815  0.32629829  0.97656599     0.16300
H200        H  0.99312733  0.34024442  0.52499697     0.16300
N201        N  0.22528244  0.50771957  0.00050626     0.00000
C202        C  0.25562933  0.50423696  0.52115861     0.02600
C203        C  0.31269636  0.51065588  0.51381273    -0.20300
C204        C  0.31684884  0.01819182  0.98788240    -0.20500
C205        C  0.26226564  0.01655894  0.98026459     0.02500
H206        H  0.34690614  0.50714676  0.52543626     0.16300
H207        H  0.35621275  0.02592946  0.97626961     0.16300
O208        O  0.05386941  0.32213494  0.64329450    -0.81900
O209        O  0.16844980  0.41791423  0.65630664    -0.78900
C210        C  0.22640742  0.44486480  0.66034380     1.01600
O211        O  0.26282959  0.44280812  0.64403407    -0.79000
O212        O  0.24392944  0.32771568  0.65700590    -0.81600
C213        C  0.21284954  0.26949847  0.66100994     1.06100
O214        O  0.17438391  0.23296261  0.64472035    -0.74400
O215        O  0.07812308  0.25226255  0.65622622    -0.74600
C216        C  0.05102762  0.28354322  0.65976839     1.06100
O217        O  0.08883279  0.34728759  0.59131385    -0.81900
O218        O  0.19923902  0.45115119  0.60306550    -0.78900
C219        C  0.23786116  0.44758787  0.58826333     1.01600
O220        O  0.25597095  0.40855020  0.59195033    -0.79000
O221        O  0.24920227  0.29780088  0.60396746    -0.81600
C222        C  0.20796472  0.25880710  0.58898381     1.06100
O223        O  0.15080530  0.24041258  0.59218177    -0.74400
O224        O  0.04696992  0.24806102  0.60278521    -0.74500
C225        C  0.05032392  0.28998201  0.58780442     1.06000
Cr226      Cr  0.13034842  0.38143938  0.62350288     1.93700
Cr227      Cr  0.24707520  0.36650636  0.62419545     1.93200
Cr228      Cr  0.11575527  0.24934891  0.62393955     1.39100
O229        O  0.16436617  0.33237395  0.62351610    -1.19600
N230        N  0.27438760  0.28529085  0.75125272     0.00000
C231        C  0.23691412  0.25648530  0.73118884     0.02600
C232        C  0.18293026  0.20307296  0.73900652    -0.20300
C233        C  0.18792934  0.19886385  0.76461972    -0.20500
C234        C  0.24475525  0.25012800  0.77178513     0.02500
H235        H  0.14350349  0.17095536  0.72754659     0.16300
H236        H  0.15423529  0.16102541  0.77637411     0.16300
C237        C  0.00137255  0.05762071  0.75046092     0.83700
N238        N  0.44597478  0.50308627  0.74980383    -0.74600
C239        C  0.44318844  0.44629577  0.74989722     0.86100
N240        N  0.49700732  0.44360337  0.75010906    -0.74600
C241        C  0.05362880  0.49894882  0.75099451     0.86200
N242        N  0.05543662  0.05533067  0.75056456    -0.76300
N243        N  0.00771013  0.22638201  0.75025347     0.00000
C244        C  0.50909169  0.25876798  0.77163746     0.02600
C245        C  0.51660906  0.31645563  0.76414536    -0.20300
C246        C  0.01625886  0.31738245  0.73721857    -0.20500
C247        C  0.01509584  0.26262265  0.72985811     0.02500
H248        H  0.51419650  0.35156196  0.77566590     0.16300
H249        H  0.02302444  0.35627864  0.72541270     0.16300
N250        N  0.21289037  0.48772483  0.75117193     0.00000
C251        C  0.23964307  0.47759526  0.73072951     0.02600
C252        C  0.29133345  0.47316364  0.73795526    -0.20300
C253        C  0.29717341  0.98277641  0.76351531    -0.20500
C254        C  0.24817918  0.99169788  0.77120252     0.02500
H255        H  0.32151463  0.46382970  0.72606955     0.16300
H256        H  0.33446073  0.98445801  0.77485077     0.16300
C257        C  0.11099560  0.49646410  0.75126301    -0.09800
C258        C  0.15841362  0.49308044  0.75133903    -0.11400
C259        C  0.00347098  0.11745759  0.75037562    -0.09800
C260        C  0.00523521  0.16766332  0.75032884    -0.11400
C261        C  0.33308841  0.34106684  0.75078959    -0.09800
C262        C  0.38333360  0.38905609  0.75032635    -0.11400
C263        C  0.02675335  0.24917282  0.70388490    -0.13000
C264        C  0.01996665  0.27921726  0.68393223    -0.28100
H265        H  0.04683954  0.21881474  0.70147093     0.16100
H266        H  0.99857805  0.30840863  0.68626794     0.16600
C267        C  0.25198940  0.47484138  0.68480805    -0.13000
C268        C  0.21481088  0.46717981  0.70471535    -0.28100
H269        H  0.30230668  0.49613333  0.68739367     0.16100
H270        H  0.16463142  0.44739376  0.70219265     0.16600
C271        C  0.21773475  0.24373453  0.68539204    -0.13000
C272        C  0.24864356  0.28111595  0.70509277    -0.28100
H273        H  0.18884263  0.19323466  0.68802655     0.16100
H274        H  0.27879809  0.33146703  0.70239368     0.16600
C275        C  0.22836456  0.48574847  0.54682153    -0.13000
C276        C  0.26427692  0.48941946  0.56653253    -0.28100
H277        H  0.17767529  0.46153309  0.54886571     0.16100
H278        H  0.31475484  0.51204969  0.56439216     0.16600
C279        C  0.01389877  0.24239041  0.54633339    -0.13000
C280        C  0.00881037  0.27397653  0.56602611    -0.28100
H281        H  0.03880869  0.21644185  0.54846912     0.16100
H282        H  0.98538156  0.30123465  0.56379725     0.16600
C283        C  0.16629117  0.50412131  0.00025314    -0.09800
C284        C  0.11597604  0.50169364  0.00003406    -0.11400
C285        C  0.49106983  0.15711059  0.50059117    -0.09800
C286        C  0.49399811  0.10932523  0.50010968    -0.11400
C287        C  0.22454141  0.23222836  0.56760626    -0.13000
C288        C  0.25795916  0.26816143  0.54803737    -0.28100
H289        H  0.19689829  0.18153790  0.56550944     0.16100
H290        H  0.28420504  0.31906459  0.55003154     0.16600
C291        C  0.34096793  0.33087077  0.50191413    -0.09800
C292        C  0.38846954  0.38155460  0.50141588    -0.11400
C293        C  0.24975946  0.02888351  0.95419009    -0.13000
C294        C  0.28045850  0.02253491  0.93435820    -0.28100
H295        H  0.21939145  0.04884107  0.95161486     0.16100
H296        H  0.30959116  0.00118909  0.93688434     0.16600
C297        C  0.27578165  0.00949998  0.81623109    -0.13000
C298        C  0.24139209  0.01150250  0.79694786    -0.28100
H299        H  0.30410171  0.98732016  0.81383160     0.16100
H300        H  0.21452874  0.03539397  0.79929549     0.16600
C301        C  0.47600745  0.25470182  0.93486830    -0.13000
C302        C  0.46797183  0.21709482  0.95470707    -0.28100
H303        H  0.49742649  0.30522443  0.93750218     0.16100
H304        H  0.44789394  0.16669763  0.95206632     0.16600
C305        C  0.49003076  0.23157438  0.79729927    -0.13000
C306        C  0.49197947  0.26743555  0.81679960    -0.28100
H307        H  0.46656276  0.18072846  0.79943079     0.16100
H308        H  0.51372874  0.31803189  0.81460484     0.16600
C309        C  0.23635765  0.22785980  0.81725680    -0.13000
C310        C  0.27231950  0.25932139  0.79740083    -0.28100
H311        H  0.18578672  0.20098250  0.81523187     0.16100
H312        H  0.32305622  0.28495380  0.79927366     0.16600
C313        C  0.28426936  0.24742886  0.95569379    -0.13000
C314        C  0.24692348  0.21775374  0.93584845    -0.28100
H315        H  0.33429441  0.27851264  0.95300379     0.16100
H316        H  0.19672499  0.18802010  0.93856665     0.16600
O317        O  0.34838668  0.58979011  0.34166250    -0.81900
O318        O  0.45233909  0.70087934  0.35301571    -0.78900
C319        C  0.44961940  0.74037210  0.33834951     1.01600
O320        O  0.41106165  0.75901293  0.34196855    -0.79000
O321        O  0.30078225  0.75254020  0.35377445    -0.81600
C322        C  0.26241117  0.71116950  0.33865208     1.06100
O323        O  0.24378943  0.65373796  0.34193045    -0.74400
O324        O  0.24969409  0.54875506  0.35311897    -0.74600
C325        C  0.29125447  0.55110093  0.33827570     1.06100
O326        O  0.32340568  0.55651947  0.39392792    -0.81900
O327        O  0.41954781  0.67130355  0.40635187    -0.78900
C328        C  0.44668592  0.72952298  0.41032604     1.01600
O329        O  0.44489545  0.76609660  0.39397406    -0.79000
O330        O  0.33043974  0.74721013  0.40696609    -0.81600
C331        C  0.27247810  0.71586849  0.41096466     1.06100
O332        O  0.23613608  0.67869294  0.39430746    -0.75200
O333        O  0.25403623  0.58164568  0.40643883    -0.74500
C334        C  0.28506652  0.55445136  0.41031063     1.06000
Cr335      Cr  0.38281486  0.63241868  0.37370716     1.93700
Cr336      Cr  0.36899185  0.75030491  0.37412538     1.93200
Cr337      Cr  0.25176278  0.61884282  0.37390024     1.39100
O338        O  0.33453298  0.66715180  0.37349917    -1.19600
N339        N  0.28756021  0.77081973  0.00190037     0.00000
C340        C  0.25974854  0.73342021  0.48173194     0.02600
C341        C  0.20736690  0.67808988  0.48919011    -0.20300
C342        C  0.20375821  0.68138538  0.01482143    -0.20500
C343        C  0.25267984  0.73963329  0.02227087     0.02500
H344        H  0.17649442  0.63858765  0.47744139     0.16300
H345        H  0.16661524  0.64601906  0.02632357     0.16300
C346        C  0.49700547  0.55278457  0.00047971     0.83700
N347        N  0.44323577  0.99601189  0.00086488    -0.74600
C348        C  0.44576450  0.94190933  0.00073109     0.86100
N349        N  0.50220696  0.94454727  0.00006355    -0.74600
C350        C  0.05652450  0.49992287  0.99987030     0.86200
N351        N  0.05470442  0.55440806  0.99932873    -0.76300
N352        N  0.48796099  0.71367250  0.00107486     0.00000
C353        C  0.48012361  0.74209995  0.48070675     0.02600
C354        C  0.47884779  0.79549061  0.48825728    -0.20300
C355        C  0.99508749  0.80354684  0.01276769    -0.20500
C356        C  0.99950580  0.75154607  0.02009792     0.02500
H357        H  0.47178521  0.82758791  0.47656593     0.16300
H358        H  0.99933008  0.84157350  0.02448271     0.16300
N359        N  0.22526308  0.00906388  0.50068268     0.00000
C360        C  0.25562265  0.00318046  0.02093184     0.02600
C361        C  0.31262160  0.00953718  0.01353067    -0.20300
C362        C  0.31725907  0.51991345  0.48819555    -0.20500
C363        C  0.26279014  0.51851402  0.48056991     0.02500
H364        H  0.34703373  0.00638843  0.02515046     0.16300
H365        H  0.35669372  0.52778248  0.47659947     0.16300
O366        O  0.05494230  0.82060983  0.14293971    -0.81900
O367        O  0.16909457  0.91653365  0.15622077    -0.78900
C368        C  0.22691861  0.94304563  0.16053201     1.01600
O369        O  0.26373334  0.94168384  0.14421073    -0.79000
O370        O  0.24556382  0.82683464  0.15675160    -0.81600
C371        C  0.21461702  0.76861759  0.16072803     1.06100
O372        O  0.17605755  0.73209652  0.14447001    -0.74400
O373        O  0.07990319  0.75148135  0.15609752    -0.74600
C374        C  0.05270544  0.78267711  0.15959239     1.06100
O375        O  0.09044521  0.84621943  0.09100795    -0.81900
O376        O  0.20030092  0.95049587  0.10300946    -0.78900
C377        C  0.23898195  0.94718895  0.08816679     1.01600
O378        O  0.25748552  0.90846217  0.09187415    -0.79000
O379        O  0.25088348  0.79759625  0.10359105    -0.81600
C380        C  0.20953714  0.75818073  0.08873580     1.06100
O381        O  0.15234674  0.73952808  0.09201065    -0.74400
O382        O  0.04846488  0.74705891  0.10258274    -0.74500
C383        C  0.05201098  0.78888290  0.08748776     1.06000
Cr384      Cr  0.13148247  0.88033872  0.12329860     1.93700
Cr385      Cr  0.24854269  0.86594553  0.12404458     1.93200
Cr386      Cr  0.11734211  0.74847416  0.12375829     1.39100
O387        O  0.16581664  0.83153928  0.12332293    -1.19600
N388        N  0.27573520  0.78484242  0.25101878     0.00000
C389        C  0.23890411  0.75536690  0.23086861     0.02600
C390        C  0.18572630  0.70096622  0.23856833    -0.20300
C391        C  0.19055043  0.69688767  0.26419198    -0.20500
C392        C  0.24639801  0.74921386  0.27148085     0.02500
H393        H  0.14689189  0.66809359  0.22703587     0.16300
H394        H  0.15744303  0.65852303  0.27590135     0.16300
C395        C  0.00252600  0.55793126  0.25050613     0.83700
N396        N  0.44575877  0.00409415  0.25039404    -0.74600
C397        C  0.44325206  0.94742368  0.25033087     0.86100
N398        N  0.49721137  0.94502598  0.25062587    -0.74600
C399        C  0.05356370  0.99855457  0.25098138     0.86200
N400        N  0.05639796  0.55528010  0.25089371    -0.76300
N401        N  0.01008528  0.72725806  0.25029134     0.00000
C402        C  0.50640338  0.75843608  0.27144353     0.02600
C403        C  0.51228379  0.81551142  0.26406915    -0.20300
C404        C  0.02033176  0.81885521  0.23710198    -0.20500
C405        C  0.01834245  0.76364378  0.22985110     0.02500
H406        H  0.50906837  0.84997435  0.27572399     0.16300
H407        H  0.02785886  0.85791565  0.22522938     0.16300
N408        N  0.21140306  0.98491264  0.25147613     0.00000
C409        C  0.23797689  0.97367849  0.23124178     0.02600
C410        C  0.28892888  0.96834683  0.23881445    -0.20300
C411        C  0.29370997  0.47589931  0.26456967    -0.20500
C412        C  0.24592582  0.48694990  0.27206563     0.02500
H413        H  0.31889897  0.95825062  0.22713758     0.16300
H414        H  0.33020563  0.47624048  0.27600980     0.16300
C415        C  0.11064701  0.99559269  0.25122240    -0.09800
C416        C  0.15759565  0.99139629  0.25135471    -0.11400
C417        C  0.00499771  0.61794187  0.25046090    -0.09800
C418        C  0.00706511  0.66828935  0.25043960    -0.11400
C419        C  0.33375607  0.84142463  0.25070565    -0.09800
C420        C  0.38358217  0.88992441  0.25045103    -0.11400
C421        C  0.02961088  0.74963303  0.20390388    -0.13000
C422        C  0.02239427  0.77916660  0.18387026    -0.28100
H423        H  0.04948485  0.71907385  0.20154207     0.16100
H424        H  0.00115802  0.80850678  0.18617906     0.16600
C425        C  0.25177305  0.97160969  0.18531403    -0.13000
C426        C  0.21402760  0.96379319  0.20506316    -0.28100
H427        H  0.30192103  0.99220568  0.18820042     0.16100
H428        H  0.16404086  0.94476021  0.20225737     0.16600
C429        C  0.21981648  0.74284258  0.18505248    -0.13000
C430        C  0.25029383  0.78022406  0.20481331    -0.28100
H431        H  0.19150031  0.69225755  0.18758315     0.16100
H432        H  0.27977275  0.83069828  0.20219971     0.16600
C433        C  0.22875743  0.98512125  0.04670011    -0.13000
C434        C  0.26496791  0.98891628  0.06634813    -0.28100
H435        H  0.17810657  0.96095270  0.04886731     0.16100
H436        H  0.31540994  0.01154764  0.06408174     0.16600
C437        C  0.01628619  0.74153430  0.04588228    -0.13000
C438        C  0.01074396  0.77280435  0.06560095    -0.28100
H439        H  0.04108424  0.71548626  0.04805232     0.16100
H440        H  0.98728316  0.80001968  0.06327933     0.16600
C441        C  0.16647886  0.00591401  0.50056077    -0.09800
C442        C  0.11629821  0.00376241  0.50044031    -0.11400
C443        C  0.49172051  0.65814860  0.00104017    -0.09800
C444        C  0.49445167  0.61024505  0.00083166    -0.11400
C445        C  0.22600335  0.73136974  0.06740056    -0.13000
C446        C  0.25963542  0.76714943  0.04784541    -0.28100
H447        H  0.19818019  0.68069267  0.06533452     0.16100
H448        H  0.28592822  0.81805310  0.04982800     0.16600
C449        C  0.34171840  0.83084154  0.00171936    -0.09800
C450        C  0.38880763  0.88184553  0.00135715    -0.11400
C451        C  0.25036022  0.53098336  0.45453148    -0.13000
C452        C  0.28051502  0.52391214  0.43469059    -0.28100
H453        H  0.22034660  0.55135735  0.45197097     0.16100
H454        H  0.30929889  0.50217832  0.43722755     0.16600
C455        C  0.27513347  0.50786856  0.31693538    -0.13000
C456        C  0.23990232  0.50824340  0.29764959    -0.28100
H457        H  0.30386104  0.48608193  0.31474753     0.16100
H458        H  0.21284811  0.53199130  0.29979396     0.16600
C459        C  0.47657043  0.75512672  0.43479108    -0.13000
C460        C  0.46864188  0.71753147  0.45462790    -0.28100
H461        H  0.49833714  0.80568847  0.43738409     0.16100
H462        H  0.44818421  0.66708379  0.45200793     0.16600
C463        C  0.48850716  0.73117770  0.29712252    -0.13000
C464        C  0.49182632  0.76712330  0.31680039    -0.28100
H465        H  0.46457912  0.68029055  0.29917375     0.16100
H466        H  0.51415435  0.81779423  0.31465512     0.16600
C467        C  0.23696630  0.72786900  0.31697778    -0.13000
C468        C  0.27338293  0.75919707  0.29721279    -0.28100
H469        H  0.18645330  0.70078527  0.31472447     0.16100
H470        H  0.32407100  0.78513442  0.29928117     0.16600
C471        C  0.28434542  0.74727616  0.45565683    -0.13000
C472        C  0.24696296  0.71843794  0.43572994    -0.28100
H473        H  0.33451073  0.77768606  0.45305233     0.16100
H474        H  0.19666273  0.68930515  0.43835924     0.16600
O475        O  0.34956882  0.58965539  0.84152178    -0.81900
O476        O  0.45335594  0.70064095  0.85302269    -0.78900
C477        C  0.45056351  0.73999821  0.83829834     1.01600
O478        O  0.41186444  0.75849946  0.84185976    -0.79000
O479        O  0.30160719  0.75220942  0.85373249    -0.81600
C480        C  0.26317074  0.71091169  0.83860759     1.06100
O481        O  0.24466675  0.65348969  0.84182487    -0.74400
O482        O  0.25075577  0.54861469  0.85282581    -0.74600
C483        C  0.29242388  0.55128862  0.83796773     1.06100
O484        O  0.32429504  0.55587410  0.89374784    -0.81900
O485        O  0.42020820  0.67076454  0.90633390    -0.78900
C486        C  0.44731734  0.72900426  0.91027635     1.01600
O487        O  0.44570713  0.76551651  0.89385114    -0.79000
O488        O  0.33124572  0.74668358  0.90689650    -0.81600
C489        C  0.27328824  0.71523653  0.91092061     1.06100
O490        O  0.23692916  0.67793189  0.89429408    -0.75200
O491        O  0.25469911  0.58070674  0.90622678    -0.74500
C492        C  0.28571032  0.55348550  0.91008485     1.06000
Cr493      Cr  0.38374281  0.63200733  0.87362919     1.93700
Cr494      Cr  0.36980943  0.74981697  0.87403874     1.93200
Cr495      Cr  0.25262738  0.61833151  0.87374994     1.39100
O496        O  0.33538183  0.66666893  0.87340563    -1.19600
N497        N  0.28699245  0.77078711  0.50199131     0.00000
C498        C  0.26064413  0.73325322  0.98166113     0.02600
C499        C  0.20898213  0.67739137  0.98919182    -0.20300
C500        C  0.20201180  0.68222376  0.51480045    -0.20500
C501        C  0.25158655  0.73999223  0.52231252     0.02500
H502        H  0.17855900  0.63758341  0.97748562     0.16300
H503        H  0.16434352  0.64735522  0.52625672     0.16300
C504        C  0.49698295  0.55228103  0.49990454     0.83700
N505        N  0.44326549  0.99538146  0.50016314    -0.74600
C506        C  0.44592300  0.94134313  0.50035447     0.86100
N507        N  0.50245165  0.94410897  0.49998918    -0.74600
C508        C  0.05680254  0.50166509  0.50033772     0.86200
N509        N  0.05480068  0.55605043  0.49971629    -0.76300
N510        N  0.48824721  0.71333408  0.50096005     0.00000
C511        C  0.47989237  0.74212662  0.98070632     0.02600
C512        C  0.47809879  0.79536385  0.98808938    -0.20300
C513        C  0.99026614  0.80247158  0.51316985    -0.20500
C514        C  0.99643738  0.75142426  0.52044675     0.02500
H515        H  0.47089613  0.82719307  0.97628108     0.16300
H516        H  0.99320008  0.83990868  0.52490313     0.16300
N517        N  0.22516281  0.00777474  0.00049691     0.00000
C518        C  0.25551146  0.00385757  0.52104381     0.02600
C519        C  0.31239343  0.00997096  0.51360209    -0.20300
C520        C  0.31708498  0.51827608  0.98798604    -0.20500
C521        C  0.26251783  0.51659924  0.98031188     0.02500
H522        H  0.34661218  0.00631777  0.52516315     0.16300
H523        H  0.35653068  0.52609473  0.97640937     0.16300
O524        O  0.05427598  0.82153579  0.64310907    -0.81900
O525        O  0.16879135  0.91734759  0.65616564    -0.78900
C526        C  0.22673963  0.94432486  0.66022634     1.01600
O527        O  0.26322485  0.94226126  0.64394238    -0.79000
O528        O  0.24450144  0.82719135  0.65680744    -0.81600
C529        C  0.21344700  0.76897281  0.66080987     1.06100
O530        O  0.17486038  0.73244401  0.64455069    -0.74400
O531        O  0.07865853  0.75181321  0.65609068    -0.74600
C532        C  0.05158099  0.78311163  0.65962949     1.06100
O533        O  0.08933498  0.84681954  0.59114402    -0.81900
O534        O  0.19963086  0.95072541  0.60295242    -0.78900
C535        C  0.23823646  0.94720966  0.58813013     1.01600
O536        O  0.25640637  0.90821330  0.59180106    -0.79000
O537        O  0.24969635  0.79744041  0.60373058    -0.81600
C538        C  0.20840953  0.75831878  0.58879160     1.06100
O539        O  0.15124644  0.73987087  0.59202275    -0.74400
O540        O  0.04742938  0.74758947  0.60261446    -0.74500
C541        C  0.05078355  0.78952707  0.58763650     1.06000
Cr542      Cr  0.13076670  0.88091722  0.62335003     1.93700
Cr543      Cr  0.24754584  0.86606458  0.62402403     1.93200
Cr544      Cr  0.11622648  0.74885733  0.62378117     1.39100
O545        O  0.16483340  0.83188822  0.62335421    -1.19600
N546        N  0.27532020  0.78483258  0.75102862     0.00000
C547        C  0.23794414  0.75585834  0.73095578     0.02600
C548        C  0.18413832  0.70225020  0.73877561    -0.20300
C549        C  0.18915404  0.69811853  0.76439302    -0.20500
C550        C  0.24580020  0.74960976  0.77156066     0.02500
H551        H  0.14479351  0.66995587  0.72732084     0.16300
H552        H  0.15560163  0.66020029  0.77615664     0.16300
C553        C  0.00156870  0.55767190  0.75056376     0.83700
N554        N  0.44629532  0.00307854  0.74996084    -0.74600
C555        C  0.44366043  0.94635772  0.74992829     0.86100
N556        N  0.49754994  0.94380934  0.75014613    -0.74600
C557        C  0.05346850  0.99892857  0.75076338     0.86200
N558        N  0.05561833  0.55535828  0.75077060    -0.76300
N559        N  0.00831743  0.72663386  0.75020980     0.00000
C560        C  0.50936788  0.75864709  0.77155756     0.02600
C561        C  0.51691608  0.81644429  0.76422375    -0.20300
C562        C  0.01733894  0.81775347  0.73705875    -0.20500
C563        C  0.01603566  0.76287901  0.72977720     0.02500
H564        H  0.51457508  0.85141562  0.77586481     0.16300
H565        H  0.02434398  0.85666463  0.72520908     0.16300
N566        N  0.21294398  0.98807995  0.75096722     0.00000
C567        C  0.23984215  0.97786607  0.73058837     0.02600
C568        C  0.29172194  0.97387191  0.73790696    -0.20300
C569        C  0.29683023  0.48172244  0.76358004    -0.20500
C570        C  0.24806104  0.49090959  0.77136351     0.02500
H571        H  0.32207155  0.96460775  0.72609760     0.16300
H572        H  0.33400873  0.48300074  0.77485720     0.16300
C573        C  0.11085314  0.99647363  0.75097333    -0.09800
C574        C  0.15833314  0.99320112  0.75105616    -0.11400
C575        C  0.00371960  0.61753733  0.75044232    -0.09800
C576        C  0.00562264  0.66781086  0.75035376    -0.11400
C577        C  0.33380653  0.84085325  0.75059790    -0.09800
C578        C  0.38389933  0.88901685  0.75021801    -0.11400
C579        C  0.02769640  0.74924331  0.70382938    -0.13000
C580        C  0.02073298  0.77903551  0.68382637    -0.28100
H581        H  0.04781701  0.71890052  0.70146530     0.16100
H582        H  0.99930260  0.80820023  0.68612663     0.16600
C583        C  0.25224605  0.97444489  0.68468284    -0.13000
C584        C  0.21502791  0.96700268  0.70455704    -0.28100
H585        H  0.30256322  0.99580687  0.68728669     0.16100
H586        H  0.16484943  0.94715225  0.70200606     0.16600
C587        C  0.21852204  0.74318545  0.68516111    -0.13000
C588        C  0.24952228  0.78053283  0.70486104    -0.28100
H589        H  0.18968708  0.69267468  0.68777996     0.16100
H590        H  0.27960906  0.83089808  0.70217009     0.16600
C591        C  0.22847743  0.98550974  0.54674826    -0.13000
C592        C  0.26452971  0.98902284  0.56638555    -0.28100
H593        H  0.17781452  0.96146690  0.54887379     0.16100
H594        H  0.31497296  0.01149297  0.56416020     0.16600
C595        C  0.01405648  0.74199439  0.54615884    -0.13000
C596        C  0.00916367  0.77359899  0.56588876    -0.28100
H597        H  0.03891863  0.71598474  0.54823594     0.16100
H598        H  0.98578868  0.80092322  0.56371192     0.16600
C599        C  0.16619979  0.00424937  0.00030566    -0.09800
C600        C  0.11590267  0.00186748  0.00012791    -0.11400
C601        C  0.49172690  0.65765790  0.50071663    -0.09800
C602        C  0.49432972  0.60968787  0.50033044    -0.11400
C603        C  0.22492354  0.73162261  0.56742879    -0.13000
C604        C  0.25862886  0.76748537  0.54789405    -0.28100
H605        H  0.19710857  0.68094894  0.56532360     0.16100
H606        H  0.28502211  0.81838072  0.54989946     0.16600
C607        C  0.34163434  0.83045737  0.50178893    -0.09800
C608        C  0.38898304  0.88125670  0.50124505    -0.11400
C609        C  0.25014829  0.52898507  0.95422514    -0.13000
C610        C  0.28086586  0.52256133  0.93442016    -0.28100
H611        H  0.21984350  0.54900512  0.95161836     0.16100
H612        H  0.30992769  0.50114832  0.93698325     0.16600
C613        C  0.27632101  0.50901037  0.81632690    -0.13000
C614        C  0.24150321  0.51067361  0.79714465    -0.28100
H615        H  0.30485379  0.48709268  0.81384833     0.16100
H616        H  0.21447589  0.53436760  0.79958264     0.16600
C617        C  0.47691258  0.75475295  0.93476390    -0.13000
C618        C  0.46882333  0.71732741  0.95467152    -0.28100
H619        H  0.49855367  0.80532432  0.93729920     0.16100
H620        H  0.44851228  0.66687320  0.95212802     0.16600
C621        C  0.49038845  0.73114934  0.79717295    -0.13000
C622        C  0.49301554  0.76691886  0.81681780    -0.28100
H623        H  0.46638253  0.68024792  0.79916807     0.16100
H624        H  0.51534072  0.81759937  0.81475164     0.16600
C625        C  0.23734079  0.72764990  0.81705323    -0.13000
C626        C  0.27333236  0.75900902  0.79719009    -0.28100
H627        H  0.18677313  0.70075925  0.81500716     0.16100
H628        H  0.32406573  0.78467499  0.79907440     0.16600
C629        C  0.28507812  0.74729849  0.95555801    -0.13000
C630        C  0.24775465  0.71784657  0.93568361    -0.28100
H631        H  0.33513479  0.77826774  0.95289828     0.16100
H632        H  0.19753285  0.68821761  0.93837791     0.16600
O633        O  0.84973841  0.09204520  0.34156037    -0.81900
O634        O  0.95328354  0.20351966  0.35245516    -0.78900
C635        C  0.94986506  0.24254970  0.33776006     1.01600
O636        O  0.91136999  0.26118575  0.34158359    -0.79000
O637        O  0.80077531  0.25376717  0.35356745    -0.81600
C638        C  0.76236373  0.21198759  0.33858071     1.06100
O639        O  0.74424717  0.15471206  0.34199829    -0.74400
O640        O  0.75125303  0.05046400  0.35331875    -0.74600
C641        C  0.79263062  0.05319201  0.33827602     1.06100
O642        O  0.82615941  0.05959752  0.39403980    -0.81900
O643        O  0.92209835  0.17488361  0.40589514    -0.78900
C644        C  0.94887256  0.23311903  0.40978507     1.01600
O645        O  0.94605033  0.26935650  0.39354427    -0.79000
O646        O  0.83134524  0.24971914  0.40675272    -0.81600
C647        C  0.77341447  0.21826131  0.41082663     1.06100
O648        O  0.73708440  0.18029731  0.39435766    -0.75200
O649        O  0.75631026  0.08406124  0.40658626    -0.74500
C650        C  0.78778532  0.05733096  0.41045855     1.06000
Cr651      Cr  0.88462371  0.13525670  0.37346869     1.93700
Cr652      Cr  0.86963668  0.25255471  0.37383810     1.93200
Cr653      Cr  0.75312172  0.12058534  0.37401404     1.39100
O654        O  0.83582408  0.16944342  0.37339869    -1.19600
N655        N  0.78589148  0.27244233  0.00189945     0.00000
C656        C  0.76044319  0.23625598  0.48147862     0.02600
C657        C  0.70884834  0.18006384  0.48877421    -0.20300
C658        C  0.70098752  0.18352010  0.01452867    -0.20500
C659        C  0.75038577  0.24127049  0.02216935     0.02500
H660        H  0.67860170  0.14053473  0.47690660     0.16300
H661        H  0.66336183  0.14828323  0.02588472     0.16300
C662        C  0.99873148  0.05314179  0.99965507     0.83700
N663        N  0.94452364  0.49673541  0.00024048    -0.74600
C664        C  0.94612722  0.44212847  0.00078177     0.86100
N665        N  0.00218735  0.44385968  0.00058374    -0.74600
C666        C  0.55603352  0.00105509  0.99953609     0.86200
N667        N  0.55333178  0.05509367  0.99966021    -0.76300
N668        N  0.99420058  0.21646599  0.99983657     0.00000
C669        C  0.98430699  0.24599678  0.47992176     0.02600
C670        C  0.98237870  0.29898107  0.48760272    -0.20300
C671        C  0.48450097  0.29877281  0.01398373    -0.20500
C672        C  0.49096323  0.24801454  0.02147962     0.02500
H673        H  0.97489361  0.33096030  0.47601311     0.16300
H674        H  0.48727612  0.33639057  0.02555280     0.16300
N675        N  0.72521209  0.50960480  0.50049444     0.00000
C676        C  0.75313667  0.50193815  0.02069031     0.02600
C677        C  0.80979670  0.50692442  0.01367518    -0.20300
C678        C  0.81890596  0.02336088  0.48864765    -0.20500
C679        C  0.76408794  0.02070980  0.48068048     0.02500
H680        H  0.84329016  0.50287306  0.02557189     0.16300
H681        H  0.85889407  0.03191847  0.47727278     0.16300
O682        O  0.55259447  0.32130123  0.14378225    -0.81900
O683        O  0.66694533  0.41775244  0.15634741    -0.78900
C684        C  0.72491646  0.44448790  0.16033518     1.01600
O685        O  0.76119826  0.44312447  0.14377680    -0.79000
O686        O  0.74353512  0.32861004  0.15662480    -0.81600
C687        C  0.71290804  0.27043422  0.16071496     1.06100
O688        O  0.67446895  0.23364078  0.14447954    -0.74400
O689        O  0.57831818  0.25250237  0.15665811    -0.74600
C690        C  0.55124558  0.28372197  0.16041454     1.06100
O691        O  0.58587823  0.34605200  0.09161549    -0.81900
O692        O  0.69624926  0.45078206  0.10290191    -0.78900
C693        C  0.73499771  0.44765104  0.08802248     1.01600
O694        O  0.75357413  0.40894815  0.09162205    -0.79000
O695        O  0.74768097  0.29849774  0.10342504    -0.81600
C696        C  0.70613123  0.25909740  0.08863172     1.06100
O697        O  0.64896118  0.24030330  0.09212143    -0.74400
O698        O  0.54486273  0.24711173  0.10337987    -0.74500
C699        C  0.54742628  0.28860743  0.08834790     1.06000
Cr700      Cr  0.62821987  0.38089605  0.12363610     1.93700
Cr701      Cr  0.74561082  0.36703845  0.12382945     1.93200
Cr702      Cr  0.61474708  0.24928113  0.12409972     1.39100
O703        O  0.66284317  0.33236811  0.12344493    -1.19600
N704        N  0.77449782  0.28649709  0.25106179     0.00000
C705        C  0.73690223  0.25817388  0.23096364     0.02600
C706        C  0.68238719  0.20529892  0.23875775    -0.20300
C707        C  0.68718003  0.20085571  0.26436515    -0.20500
C708        C  0.74444038  0.25144079  0.27156795     0.02500
H709        H  0.64273700  0.17368192  0.22727850     0.16300
H710        H  0.65297994  0.16328845  0.27607527     0.16300
C711        C  0.50207322  0.05820984  0.25079136     0.83700
N712        N  0.94623721  0.50382276  0.25035055    -0.74600
C713        C  0.94368426  0.44715774  0.25063231     0.86100
N714        N  0.99762789  0.44473062  0.25103960    -0.74600
C715        C  0.55321097  0.49862029  0.25075279     0.86200
N716        N  0.55592546  0.05554766  0.25114476    -0.76300
N717        N  0.51112339  0.22820020  0.25120848     0.00000
C718        C  0.00592503  0.25856559  0.27067409     0.02600
C719        C  0.01238239  0.31568884  0.26302250    -0.20300
C720        C  0.52104225  0.31990537  0.23838429    -0.20500
C721        C  0.51932243  0.26496979  0.23091022     0.02500
H722        H  0.00977925  0.35074457  0.27449808     0.16300
H723        H  0.52825819  0.35903745  0.22663085     0.16300
N724        N  0.71199975  0.48678105  0.25140119     0.00000
C725        C  0.73863427  0.47620773  0.23102586     0.02600
C726        C  0.79079648  0.47270426  0.23831657    -0.20300
C727        C  0.79670641  0.98199520  0.26403954    -0.20500
C728        C  0.74784309  0.99105873  0.27179598     0.02500
H729        H  0.82118460  0.46354446  0.22648535     0.16300
H730        H  0.83425983  0.98407373  0.27531489     0.16300
C731        C  0.61029300  0.49572463  0.25121609    -0.09800
C732        C  0.65756144  0.49213629  0.25144431    -0.11400
C733        C  0.50472789  0.11829677  0.25097037    -0.09800
C734        C  0.50744684  0.16893910  0.25110441    -0.11400
C735        C  0.83350912  0.34193261  0.25074859    -0.09800
C736        C  0.88390647  0.38978393  0.25063053    -0.11400
C737        C  0.53020319  0.25128737  0.20485547    -0.13000
C738        C  0.52210916  0.28059612  0.18494865    -0.28100
H739        H  0.55016191  0.22086159  0.20227825     0.16100
H740        H  0.50080969  0.30981707  0.18748362     0.16600
C741        C  0.75063296  0.47332151  0.18499123    -0.13000
C742        C  0.71358433  0.46528164  0.20500457    -0.28100
H743        H  0.80095124  0.49448913  0.18752068     0.16100
H744        H  0.66340011  0.44555922  0.20253073     0.16600
C745        C  0.71813557  0.24504864  0.18515126    -0.13000
C746        C  0.74894610  0.28265556  0.20483072    -0.28100
H747        H  0.68936861  0.19456070  0.18787529     0.16100
H748        H  0.77905229  0.33299654  0.20208323     0.16600
C749        C  0.72541198  0.48456759  0.04632630    -0.13000
C750        C  0.76115928  0.48965201  0.06630417    -0.28100
H751        H  0.67466374  0.45969546  0.04817429     0.16100
H752        H  0.81173318  0.51310208  0.06429926     0.16600
C753        C  0.50900226  0.23931555  0.04723507    -0.13000
C754        C  0.50506562  0.27195660  0.06679874    -0.28100
H755        H  0.53360394  0.21307466  0.04941563     0.16100
H756        H  0.48196981  0.29951624  0.06452278     0.16600
C757        C  0.66612519  0.50576226  0.49999196    -0.09800
C758        C  0.61568434  0.50303307  0.49967748    -0.11400
C759        C  0.99584480  0.15980206  0.99967206    -0.09800
C760        C  0.99707271  0.11109082  0.99957772    -0.11400
C761        C  0.72233045  0.23236962  0.06717334    -0.13000
C762        C  0.75718454  0.26831296  0.04784850    -0.28100
H763        H  0.69370361  0.18183411  0.06487709     0.16100
H764        H  0.78439212  0.31911375  0.05006586     0.16600
C765        C  0.84083478  0.33193530  0.00188361    -0.09800
C766        C  0.88856595  0.38248412  0.00153052    -0.11400
C767        C  0.75196237  0.03271056  0.45452284    -0.13000
C768        C  0.78358122  0.02706362  0.43488361    -0.28100
H769        H  0.72075870  0.05160690  0.45171639     0.16100
H770        H  0.81349576  0.00667022  0.43761688     0.16600
C771        C  0.77634932  0.01037328  0.31676822    -0.13000
C772        C  0.74156855  0.01167110  0.29748154    -0.28100
H773        H  0.80480228  0.98831906  0.31441907     0.16100
H774        H  0.71460621  0.03547779  0.29975200     0.16600
C775        C  0.97954359  0.25906316  0.43408520    -0.13000
C776        C  0.97278399  0.22161460  0.45382912    -0.28100
H777        H  0.00070806  0.30956186  0.43670325     0.16100
H778        H  0.95295960  0.17126063  0.45115556     0.16600
C779        C  0.98816042  0.23217973  0.29650018    -0.13000
C780        C  0.99119847  0.26873064  0.31592593    -0.28100
H781        H  0.96473791  0.18140030  0.29887119     0.16100
H782        H  0.01298626  0.31926826  0.31349160     0.16600
C783        C  0.73608702  0.22800711  0.31697311    -0.13000
C784        C  0.77193347  0.26014040  0.29718941    -0.28100
H785        H  0.68556411  0.20052833  0.31493850     0.16100
H786        H  0.82264879  0.28628123  0.29912134     0.16600
C787        C  0.78505154  0.25093810  0.45540369    -0.13000
C788        C  0.74783379  0.22156945  0.43548692    -0.28100
H789        H  0.83515307  0.28177214  0.45281082     0.16100
H790        H  0.69757705  0.19209918  0.43813567     0.16600
O791        O  0.84885731  0.09100991  0.84129018    -0.81900
O792        O  0.95229535  0.20247165  0.85234754    -0.78900
C793        C  0.94869369  0.24148929  0.83771189     1.01600
O794        O  0.90998568  0.25982598  0.84156800    -0.79000
O795        O  0.79926949  0.25188381  0.85362937    -0.81600
C796        C  0.76101826  0.21011868  0.83859343     1.06100
O797        O  0.74294474  0.15285505  0.84200570    -0.74400
O798        O  0.75042260  0.04883509  0.85319898    -0.74600
C799        C  0.79179015  0.05191796  0.83806917     1.06100
O800        O  0.82543405  0.05786519  0.89372707    -0.81900
O801        O  0.92126112  0.17328235  0.90574902    -0.78900
C802        C  0.94809551  0.23153840  0.90963624     1.01600
O803        O  0.94485828  0.26774211  0.89348747    -0.79000
O804        O  0.83005485  0.24765894  0.90681611    -0.81600
C805        C  0.77214100  0.21607484  0.91090632     1.06100
O806        O  0.73583457  0.17811767  0.89442672    -0.75200
O807        O  0.75550016  0.08203855  0.90645282    -0.74500
C808        C  0.78697649  0.05524847  0.91018369     1.06000
Cr809      Cr  0.88373648  0.13386105  0.87326840     1.93700
Cr810      Cr  0.86829986  0.25083639  0.87385178     1.93200
Cr811      Cr  0.75206022  0.11869735  0.87396854     1.39100
O812        O  0.83472796  0.16778278  0.87333057    -1.19600
N813        N  0.78722492  0.27318210  0.50190093     0.00000
C814        C  0.75879140  0.23528692  0.98154814     0.02600
C815        C  0.70647289  0.17978001  0.98892077    -0.20300
C816        C  0.70345266  0.18317217  0.51442259    -0.20500
C817        C  0.75218560  0.24125802  0.52214292     0.02500
H818        H  0.67578330  0.14027018  0.97713669     0.16300
H819        H  0.66630192  0.14726320  0.52574474     0.16300
C820        C  0.99889234  0.05473282  0.49989365     0.83700
N821        N  0.94463719  0.49811106  0.50062678    -0.74600
C822        C  0.94644223  0.44361515  0.50123566     0.86100
N823        N  0.00257919  0.44552668  0.50109058    -0.74600
C824        C  0.55622016  0.00068957  0.49942789     0.86200
N825        N  0.55336908  0.05464806  0.49925611    -0.76300
N826        N  0.99246546  0.21707759  0.50011446     0.00000
C827        C  0.98658979  0.24570879  0.97961349     0.02600
C828        C  0.98670606  0.29979710  0.98723168    -0.20300
C829        C  0.48509124  0.29830895  0.51418589    -0.20500
C830        C  0.49147496  0.24737235  0.52148149     0.02500
H831        H  0.98013952  0.33235622  0.97563584     0.16300
H832        H  0.48826133  0.33592788  0.52587079     0.16300
N833        N  0.72376999  0.50720049  0.00004704     0.00000
C834        C  0.75504779  0.50489449  0.52110281     0.02600
C835        C  0.81251623  0.51183796  0.51405932    -0.20300
C836        C  0.81624485  0.01791636  0.98831411    -0.20500
C837        C  0.76225902  0.01699903  0.98029735     0.02500
H838        H  0.84664683  0.50870973  0.52588119     0.16300
H839        H  0.85582286  0.02512195  0.97697116     0.16300
O840        O  0.55388206  0.32007779  0.64377278    -0.81900
O841        O  0.66810138  0.41679203  0.65625167    -0.78900
C842        C  0.72610381  0.44379207  0.66018623     1.01600
O843        O  0.76243110  0.44247892  0.64364442    -0.79000
O844        O  0.74508038  0.32809322  0.65651204    -0.81600
C845        C  0.71460383  0.26990436  0.66058801     1.06100
O846        O  0.67629845  0.23307148  0.64432999    -0.74400
O847        O  0.58008504  0.25166306  0.65666119    -0.74600
C848        C  0.55292758  0.28278136  0.66044902     1.06100
O849        O  0.58700299  0.34493295  0.59156964    -0.81900
O850        O  0.69719119  0.44993074  0.60290237    -0.78900
C851        C  0.73614670  0.44715874  0.58803691     1.01600
O852        O  0.75475348  0.40842466  0.59152066    -0.79000
O853        O  0.74912370  0.29796641  0.60331622    -0.81600
C854        C  0.70755832  0.25843725  0.58856229     1.06100
O855        O  0.65038079  0.23957407  0.59205030    -0.74400
O856        O  0.54615728  0.24606181  0.60339356    -0.74500
C857        C  0.54858897  0.28746226  0.58833491     1.06000
Cr858      Cr  0.62933540  0.37986134  0.62358976     1.93700
Cr859      Cr  0.74697517  0.36645721  0.62371168     1.93200
Cr860      Cr  0.61628672  0.24846805  0.62404838     1.39100
O861        O  0.66419853  0.33157214  0.62336447    -1.19600
N862        N  0.77440029  0.28561180  0.75113843     0.00000
C863        C  0.73741561  0.25715648  0.73090142     0.02600
C864        C  0.68329065  0.20353785  0.73846275    -0.20300
C865        C  0.68768308  0.19878200  0.76407330    -0.20500
C866        C  0.74429028  0.24994080  0.77151205     0.02500
H867        H  0.64417095  0.17159429  0.72682411     0.16300
H868        H  0.65371644  0.16065105  0.77563612     0.16300
C869        C  0.50265145  0.05711737  0.75023927     0.83700
N870        N  0.94543995  0.50338152  0.75057213    -0.74600
C871        C  0.94320857  0.44686367  0.75078579     0.86100
N872        N  0.99735687  0.44478053  0.75097005    -0.74600
C873        C  0.55351567  0.49746553  0.75024889     0.86200
N874        N  0.55643176  0.05433545  0.75045022    -0.76300
N875        N  0.51305450  0.22767772  0.75127129     0.00000
C876        C  0.00342684  0.25744667  0.77055152     0.02600
C877        C  0.00865709  0.31405276  0.76291443    -0.20300
C878        C  0.52504576  0.32023987  0.73848180    -0.20500
C879        C  0.52214591  0.26477541  0.73100184     0.02500
H880        H  0.00545203  0.34872368  0.77442308     0.16300
H881        H  0.53315104  0.35967651  0.72672862     0.16300
N882        N  0.71280117  0.48656951  0.75104130     0.00000
C883        C  0.73970779  0.47610503  0.73074519     0.02600
C884        C  0.79218095  0.47326012  0.73810491    -0.20300
C885        C  0.79771995  0.98223350  0.76390970    -0.20500
C886        C  0.74851230  0.99090625  0.77149429     0.02500
H887        H  0.82281805  0.46432630  0.72633384     0.16300
H888        H  0.83529785  0.98475736  0.77531102     0.16300
C889        C  0.61054206  0.49448982  0.75072885    -0.09800
C890        C  0.65801360  0.49128865  0.75100517    -0.11400
C891        C  0.50543411  0.11724199  0.75072007    -0.09800
C892        C  0.50853998  0.16804887  0.75108711    -0.11400
C893        C  0.83322091  0.34131965  0.75099000    -0.09800
C894        C  0.88353831  0.38930112  0.75088802    -0.11400
C895        C  0.53260300  0.25077223  0.70494464    -0.13000
C896        C  0.52422443  0.27992187  0.68505588    -0.28100
H897        H  0.55238799  0.22020411  0.70233624     0.16100
H898        H  0.50303790  0.30923052  0.68765339     0.16600
C899        C  0.75179437  0.47291072  0.68477381    -0.13000
C900        C  0.71464853  0.46471493  0.70475181    -0.28100
H901        H  0.80215306  0.49444744  0.68729131     0.16100
H902        H  0.66440968  0.44458656  0.70227744     0.16600
C903        C  0.71981108  0.24451102  0.68502109    -0.13000
C904        C  0.74967332  0.28205762  0.70483325    -0.28100
H905        H  0.69168151  0.19392025  0.68761342     0.16100
H906        H  0.77907523  0.33254505  0.70223148     0.16600
C907        C  0.72710267  0.48601354  0.54665627    -0.13000
C908        C  0.76263069  0.48979752  0.56652922    -0.28100
H909        H  0.67634641  0.46116500  0.54845434     0.16100
H910        H  0.81320903  0.51315786  0.56462576     0.16600
C911        C  0.50995975  0.23849368  0.54713808    -0.13000
C912        C  0.50597160  0.27072893  0.56685232    -0.28100
H913        H  0.53485300  0.21249262  0.54911889     0.16100
H914        H  0.48251993  0.29799952  0.56475202     0.16600
C915        C  0.66537930  0.50488288  0.99955365    -0.09800
C916        C  0.61534770  0.50304331  0.99937919    -0.11400
C917        C  0.99526043  0.16101616  0.49990448    -0.09800
C918        C  0.99705781  0.11259857  0.49979858    -0.11400
C919        C  0.72380022  0.23179573  0.56711144    -0.13000
C920        C  0.75872225  0.26793955  0.54786101    -0.28100
H921        H  0.69517520  0.18128292  0.56475178     0.16100
H922        H  0.78578202  0.31872512  0.55016690     0.16600
C923        C  0.84163491  0.33306259  0.50200697    -0.09800
C924        C  0.88903493  0.38386723  0.50181693    -0.11400
C925        C  0.75073516  0.02967715  0.95414565    -0.13000
C926        C  0.78257883  0.02443509  0.93449516    -0.28100
H927        H  0.71972775  0.04881889  0.95137371     0.16100
H928        H  0.81239879  0.00390767  0.93713322     0.16600
C929        C  0.77551457  0.00917098  0.81656561    -0.13000
C930        C  0.74177601  0.01146216  0.79709625    -0.28100
H931        H  0.80331599  0.98634990  0.81438743     0.16100
H932        H  0.71541132  0.03594792  0.79919036     0.16600
C933        C  0.97966045  0.25771314  0.93378504    -0.13000
C934        C  0.97345994  0.22063083  0.95359818    -0.28100
H935        H  0.00139110  0.30830828  0.93622527     0.16100
H936        H  0.95298469  0.17015422  0.95107814     0.16600
C937        C  0.98656847  0.23121948  0.79641441    -0.13000
C938        C  0.98988357  0.26779871  0.81586314    -0.28100
H939        H  0.96340969  0.18046211  0.79881863     0.16100
H940        H  0.01144424  0.31831190  0.81339661     0.16600
C941        C  0.73500534  0.22613331  0.81689012    -0.13000
C942        C  0.77120788  0.25867834  0.79724348    -0.28100
H943        H  0.68455761  0.19830094  0.81463619     0.16100
H944        H  0.82186250  0.28521836  0.79937642     0.16600
C945        C  0.78363363  0.24910241  0.95547652    -0.13000
C946        C  0.74651865  0.21942783  0.93555926    -0.28100
H947        H  0.83376134  0.27979130  0.95289939     0.16100
H948        H  0.69623774  0.19007987  0.93815963     0.16600
O949        O  0.84910074  0.59194209  0.34137610    -0.81900
O950        O  0.95264276  0.70342301  0.35222183    -0.78900
C951        C  0.94910745  0.74248110  0.33757986     1.01600
O952        O  0.91061716  0.76107666  0.34149867    -0.79000
O953        O  0.80000128  0.75342304  0.35359955    -0.81600
C954        C  0.76156361  0.71163408  0.33862040     1.06100
O955        O  0.74348979  0.65436696  0.34203003    -0.74400
O956        O  0.75068478  0.55018380  0.35324518    -0.74600
C957        C  0.79199485  0.55302136  0.33813708     1.06100
O958        O  0.82586695  0.55936178  0.39388826    -0.81900
O959        O  0.92180438  0.67466686  0.40570098    -0.78900
C960        C  0.94848099  0.73287888  0.40963693     1.01600
O961        O  0.94553293  0.76913930  0.39343992    -0.79000
O962        O  0.83083983  0.74932799  0.40675562    -0.81600
C963        C  0.77293346  0.71782015  0.41087506     1.06100
O964        O  0.73654373  0.67983538  0.39442541    -0.75200
O965        O  0.75595863  0.58365318  0.40653657    -0.74500
C966        C  0.78744498  0.55690352  0.41033260     1.06000
Cr967      Cr  0.88415034  0.63508716  0.37328478     1.93700
Cr968      Cr  0.86900386  0.75228584  0.37379903     1.93200
Cr969      Cr  0.75258014  0.62023301  0.37400422     1.39100
O970        O  0.83527573  0.66918359  0.37332594    -1.19600
N971        N  0.78570321  0.77275246  0.00187229     0.00000
C972        C  0.76034022  0.73633796  0.48152978     0.02600
C973        C  0.70875608  0.68025689  0.48893463    -0.20300
C974        C  0.70073542  0.68406439  0.01463510    -0.20500
C975        C  0.75026189  0.74182296  0.02218844     0.02500
H976        H  0.67838072  0.64061691  0.47714228     0.16300
H977        H  0.66310980  0.64900995  0.02605045     0.16300
C978        C  0.99877637  0.55292440  0.99950759     0.83700
N979        N  0.94446650  0.99695384  0.00028763    -0.74600
C980        C  0.94605387  0.94233461  0.00076349     0.86100
N981        N  0.00210734  0.94404818  0.00060266    -0.74600
C982        C  0.55568456  0.50077379  0.99956798     0.86200
N983        N  0.55324673  0.55495756  0.99974182    -0.76300
N984        N  0.99417274  0.71621061  0.99964253     0.00000
C985        C  0.98401780  0.74559346  0.47978367     0.02600
C986        C  0.98217644  0.79860306  0.48750059    -0.20300
C987        C  0.48600278  0.79985613  0.01376804    -0.20500
C988        C  0.49204234  0.74893545  0.02138667     0.02500
H989        H  0.97468772  0.83062345  0.47593837     0.16300
H990        H  0.48901871  0.83769243  0.02525976     0.16300
N991        N  0.72606875  0.01102082  0.50066429     0.00000
C992        C  0.75414921  0.00381429  0.02095420     0.02600
C993        C  0.81108313  0.00937340  0.01397786    -0.20300
C994        C  0.81763981  0.52096389  0.48843730    -0.20500
C995        C  0.76312874  0.51902418  0.48049236     0.02500
H996        H  0.84477597  0.00573032  0.02589696     0.16300
H997        H  0.85751074  0.52916312  0.47706232     0.16300
O998        O  0.55270680  0.82214917  0.14376815    -0.81900
O999        O  0.66704987  0.91845774  0.15647160    -0.78900
C1000       C  0.72501233  0.94516270  0.16048188     1.01600
O1001       O  0.76132951  0.94390458  0.14391571    -0.79000
O1002       O  0.74354372  0.82931312  0.15671423    -0.81600
C1003       C  0.71282589  0.77112374  0.16076733     1.06100
O1004       O  0.67452511  0.73441916  0.14447582    -0.74400
O1005       O  0.57830050  0.75320811  0.15658686    -0.74600
C1006       C  0.55118810  0.78438717  0.16034927     1.06100
O1007       O  0.58625293  0.84717563  0.09164831    -0.81900
O1008       O  0.69663909  0.95181840  0.10306275    -0.78900
C1009       C  0.73546376  0.94876811  0.08819966     1.01600
O1010       O  0.75393534  0.90996612  0.09175554    -0.79000
O1011       O  0.74797204  0.79942734  0.10349889    -0.81600
C1012       C  0.70648995  0.76009090  0.08866591     1.06100
O1013       O  0.64931763  0.74136029  0.09209973    -0.74400
O1014       O  0.54521074  0.74815017  0.10330624    -0.74500
C1015       C  0.54787786  0.78973638  0.08830377     1.06000
Cr1016     Cr  0.62846218  0.88182528  0.12371011     1.93700
Cr1017     Cr  0.74581254  0.86789555  0.12393343     1.93200
Cr1018     Cr  0.61493931  0.75017948  0.12406312     1.39100
O1019       O  0.66305032  0.83326289  0.12349015    -1.19600
N1020       N  0.77379373  0.78665727  0.25117165     0.00000
C1021       C  0.73620019  0.75856106  0.23105257     0.02600
C1022       C  0.68153692  0.70579657  0.23880123    -0.20300
C1023       C  0.68623421  0.70117571  0.26440568    -0.20500
C1024       C  0.74360101  0.75155237  0.27165131     0.02500
H1025       H  0.64186804  0.67436171  0.22729007     0.16300
H1026       H  0.65188879  0.66362126  0.27607669     0.16300
C1027       C  0.50176590  0.55790035  0.25042805     0.83700
N1028       N  0.94578058  0.00372512  0.25036242    -0.74600
C1029       C  0.94320200  0.94704825  0.25064327     0.86100
N1030       N  0.99713645  0.94459354  0.25094939    -0.74600
C1031       C  0.55358931  0.99899205  0.25106025     0.86200
N1032       N  0.55559592  0.55519827  0.25074379    -0.76300
N1033       N  0.51071856  0.72782471  0.25100215     0.00000
C1034       C  0.00583932  0.75858657  0.27051771     0.02600
C1035       C  0.01223525  0.81562705  0.26277477    -0.20300
C1036       C  0.52026123  0.81950847  0.23837581    -0.20500
C1037       C  0.51866621  0.76470811  0.23077464     0.02500
H1038       H  0.00947372  0.85070163  0.27417553     0.16300
H1039       H  0.52729702  0.85870207  0.22670340     0.16300
N1040       N  0.71223268  0.98689999  0.25161648     0.00000
C1041       C  0.73871503  0.97627622  0.23120535     0.02600
C1042       C  0.79076605  0.97251090  0.23843978    -0.20300
C1043       C  0.79664036  0.48229303  0.26391172    -0.20500
C1044       C  0.74760736  0.49114352  0.27161139     0.02500
H1045       H  0.82101092  0.96324436  0.22656412     0.16300
H1046       H  0.83424804  0.48460081  0.27522347     0.16300
C1047       C  0.61068380  0.99612074  0.25151755    -0.09800
C1048       C  0.65790140  0.99244082  0.25171529    -0.11400
C1049       C  0.50445932  0.61799628  0.25059617    -0.09800
C1050       C  0.50715196  0.66862030  0.25078085    -0.11400
C1051       C  0.83292918  0.84193998  0.25088221    -0.09800
C1052       C  0.88340119  0.88970085  0.25073066    -0.11400
C1053       C  0.52963994  0.75133584  0.20469138    -0.13000
C1054       C  0.52181096  0.78098772  0.18484785    -0.28100
H1055       H  0.54953125  0.72087016  0.20205245     0.16100
H1056       H  0.50059115  0.81026541  0.18742792     0.16600
C1057       C  0.75069160  0.97381847  0.18516404    -0.13000
C1058       C  0.71363468  0.96557333  0.20519433    -0.28100
H1059       H  0.80101339  0.99499769  0.18769262     0.16100
H1060       H  0.66344537  0.94584285  0.20273449     0.16600
C1061       C  0.71776329  0.74562219  0.18522026    -0.13000
C1062       C  0.74845569  0.78313938  0.20493496    -0.28100
H1063       H  0.68888783  0.69513561  0.18791731     0.16100
H1064       H  0.77867314  0.83347632  0.20222013     0.16600
C1065       C  0.72626246  0.98613249  0.04655473    -0.13000
C1066       C  0.76184240  0.99098851  0.06655738    -0.28100
H1067       H  0.67550003  0.96120523  0.04834391     0.16100
H1068       H  0.81243125  0.01444676  0.06462523     0.16600
C1069       C  0.50975439  0.74028059  0.04720292    -0.13000
C1070       C  0.50579256  0.77315647  0.06667251    -0.28100
H1071       H  0.53413525  0.71386017  0.04951161     0.16100
H1072       H  0.48289384  0.80086694  0.06427148     0.16600
C1073       C  0.66673414  0.00660555  0.50010724    -0.09800
C1074       C  0.61613694  0.00351486  0.49968811    -0.11400
C1075       C  0.99583675  0.65955649  0.99944300    -0.09800
C1076       C  0.99709248  0.61085927  0.99936779    -0.11400
C1077       C  0.72274552  0.73329783  0.06724333    -0.13000
C1078       C  0.75725506  0.76911743  0.04783010    -0.28100
H1079       H  0.69431262  0.68271287  0.06503208     0.16100
H1080       H  0.78428679  0.81995470  0.04995313     0.16600
C1081       C  0.84071612  0.83218449  0.00179010    -0.09800
C1082       C  0.88848177  0.88270010  0.00144205    -0.11400
C1083       C  0.75129399  0.53154223  0.45435714    -0.13000
C1084       C  0.78310371  0.52627859  0.43469180    -0.28100
H1085       H  0.72013838  0.55051293  0.45160337     0.16100
H1086       H  0.81298521  0.50582602  0.43735131     0.16600
C1087       C  0.77566209  0.51019443  0.31662688    -0.13000
C1088       C  0.74116814  0.51174395  0.29727782    -0.28100
H1089       H  0.80393263  0.48792617  0.31432600     0.16100
H1090       H  0.71435110  0.53571845  0.29949111     0.16600
C1091       C  0.97917196  0.75875518  0.43394677    -0.13000
C1092       C  0.97243325  0.72126128  0.45367644    -0.28100
H1093       H  0.00033167  0.80924503  0.43658789     0.16100
H1094       H  0.95260424  0.67091398  0.45098162     0.16600
C1095       C  0.98791873  0.73229780  0.29636218    -0.13000
C1096       C  0.99032006  0.76879190  0.31570772    -0.28100
H1097       H  0.96497252  0.68156386  0.29880015     0.16100
H1098       H  0.01161260  0.81926142  0.31320774     0.16600
C1099       C  0.73521793  0.72762777  0.31702525    -0.13000
C1100       C  0.77105080  0.76000590  0.29727454    -0.28100
H1101       H  0.68470824  0.70002192  0.31497563     0.16100
H1102       H  0.82175929  0.78624300  0.29922676     0.16600
C1103       C  0.78477747  0.75073426  0.45542600    -0.13000
C1104       C  0.74746114  0.72114664  0.43555927    -0.28100
H1105       H  0.83484860  0.78162516  0.45277321     0.16100
H1106       H  0.69722935  0.69161737  0.43825932     0.16600
O1107       O  0.84856684  0.59112867  0.84112806    -0.81900
O1108       O  0.95190779  0.70263869  0.85215986    -0.78900
C1109       C  0.94817413  0.74164169  0.83755986     1.01600
O1110       O  0.90941944  0.75988886  0.84148183    -0.79000
O1111       O  0.79861284  0.75163681  0.85361667    -0.81600
C1112       C  0.76038865  0.70984109  0.83858303     1.06100
O1113       O  0.74239483  0.65260082  0.84199747    -0.74400
O1114       O  0.75016334  0.54873597  0.85309684    -0.74600
C1115       C  0.79151303  0.55198636  0.83791730     1.06100
O1116       O  0.82539632  0.55784383  0.89358219    -0.81900
O1117       O  0.92115043  0.67335306  0.90557546    -0.78900
C1118       C  0.94788293  0.73159447  0.90949155     1.01600
O1119       O  0.94444431  0.76778867  0.89339334    -0.79000
O1120       O  0.82957694  0.74743123  0.90679378    -0.81600
C1121       C  0.77168402  0.71572763  0.91092058     1.06100
O1122       O  0.73537174  0.67771289  0.89445589    -0.75200
O1123       O  0.75530044  0.58174401  0.90636957    -0.74500
C1124       C  0.78678863  0.55494183  0.91003238     1.06000
Cr1125     Cr  0.88350949  0.63393278  0.87310880     1.93700
Cr1126     Cr  0.86777885  0.75073751  0.87379778     1.93200
Cr1127     Cr  0.75171038  0.61846540  0.87392686     1.39100
O1128       O  0.83436436  0.66769976  0.87325416    -1.19600
N1129       N  0.78729467  0.77348029  0.50188229     0.00000
C1130       C  0.75846644  0.73543002  0.98157245     0.02600
C1131       C  0.70609289  0.68006064  0.98903036    -0.20300
C1132       C  0.70356546  0.68365505  0.51458193    -0.20500
C1133       C  0.75240803  0.74179669  0.52218896     0.02500
H1134       H  0.67528158  0.64047068  0.97730825     0.16300
H1135       H  0.66646946  0.64790947  0.52597828     0.16300
C1136       C  0.99879094  0.55438808  0.49987572     0.83700
N1137       N  0.94470412  0.99846753  0.50052219    -0.74600
C1138       C  0.94646328  0.94393985  0.50105994     0.86100
N1139       N  0.00257687  0.94580334  0.50096405    -0.74600
C1140       C  0.55588874  0.50048691  0.49956709     0.86200
N1141       N  0.55329647  0.55458705  0.49945185    -0.76300
N1142       N  0.99225539  0.71666040  0.49995538     0.00000
C1143       C  0.98661622  0.74556484  0.97944338     0.02600
C1144       C  0.98669249  0.79960212  0.98711479    -0.20300
C1145       C  0.48715169  0.79977629  0.51391870    -0.20500
C1146       C  0.49290720  0.74857584  0.52136757     0.02500
H1147       H  0.98016142  0.83223715  0.97555440     0.16300
H1148       H  0.49068801  0.83769606  0.52550861     0.16300
N1149       N  0.72464199  0.00869344  0.00028240     0.00000
C1150       C  0.75611257  0.00676894  0.52129375     0.02600
C1151       C  0.81385990  0.01435665  0.51427643    -0.20300
C1152       C  0.81498775  0.51556807  0.98802074    -0.20500
C1153       C  0.76127561  0.51527599  0.98003914     0.02500
H1154       H  0.84824374  0.01172464  0.52611152     0.16300
H1155       H  0.85445104  0.52247734  0.97667165     0.16300
O1156       O  0.55451436  0.82135948  0.64373688    -0.81900
O1157       O  0.66874189  0.91785213  0.65632982    -0.78900
C1158       C  0.72671826  0.94470757  0.66031133     1.01600
O1159       O  0.76309236  0.94356065  0.64375151    -0.79000
O1160       O  0.74559878  0.82908790  0.65654664    -0.81600
C1161       C  0.71500080  0.77088661  0.66058765     1.06100
O1162       O  0.67676454  0.73415739  0.64429104    -0.74400
O1163       O  0.58059297  0.75283097  0.65658609    -0.74600
C1164       C  0.55346358  0.78396899  0.66038883     1.06100
O1165       O  0.58787607  0.84644951  0.59156613    -0.81900
O1166       O  0.69808862  0.95132005  0.60302645    -0.78900
C1167       C  0.73705913  0.94858032  0.58816126     1.01600
O1168       O  0.75558944  0.90976967  0.59160531    -0.79000
O1169       O  0.74982369  0.79918044  0.60333877    -0.81600
C1170       C  0.70827845  0.75964538  0.58857994     1.06100
O1171       O  0.65110759  0.74088959  0.59201652    -0.74400
O1172       O  0.54694268  0.74750064  0.60330139    -0.74500
C1173       C  0.54950777  0.78898951  0.58826116     1.06000
Cr1174     Cr  0.63009308  0.88117538  0.62362630     1.93700
Cr1175     Cr  0.74766143  0.86762536  0.62376687     1.93200
Cr1176     Cr  0.61690968  0.74972537  0.62399348     1.39100
O1177       O  0.66488902  0.83281836  0.62337046    -1.19600
N1178       N  0.77403819  0.78585344  0.75119221     0.00000
C1179       C  0.73709131  0.75768063  0.73092177     0.02600
C1180       C  0.68280406  0.70414212  0.73841092    -0.20300
C1181       C  0.68706200  0.69914182  0.76401696    -0.20500
C1182       C  0.74375987  0.75008486  0.77152236     0.02500
H1183       H  0.64368174  0.67240792  0.72672556     0.16300
H1184       H  0.65293204  0.66099413  0.77552592     0.16300
C1185       C  0.50239733  0.55704808  0.74995714     0.83700
N1186       N  0.94526094  0.00332387  0.75056044    -0.74600
C1187       C  0.94304943  0.94681926  0.75076063     0.86100
N1188       N  0.99720502  0.94474751  0.75082886    -0.74600
C1189       C  0.55398717  0.99773601  0.75040516     0.86200
N1190       N  0.55609855  0.55412733  0.75017609    -0.76300
N1191       N  0.51318011  0.72776399  0.75109505     0.00000
C1192       C  0.00390344  0.75779152  0.77045415     0.02600
C1193       C  0.00945484  0.81448765  0.76273944    -0.20300
C1194       C  0.52525991  0.82052395  0.73855048    -0.20500
C1195       C  0.52226684  0.76511538  0.73091426     0.02500
H1196       H  0.00628924  0.84928448  0.77417538     0.16300
H1197       H  0.53339499  0.86012187  0.72689563     0.16300
N1198       N  0.71299823  0.98636090  0.75124412     0.00000
C1199       C  0.73984264  0.97582122  0.73094931     0.02600
C1200       C  0.79205422  0.97251737  0.73832180    -0.20300
C1201       C  0.79792984  0.48316899  0.76367905    -0.20500
C1202       C  0.74850756  0.49147244  0.77127412     0.02500
H1203       H  0.82258548  0.96344875  0.72654197     0.16300
H1204       H  0.83567375  0.48603311  0.77507117     0.16300
C1205       C  0.61105744  0.99484722  0.75089648    -0.09800
C1206       C  0.65842151  0.99145333  0.75118892    -0.11400
C1207       C  0.50533833  0.61724145  0.75037749    -0.09800
C1208       C  0.50856884  0.66809938  0.75077514    -0.11400
C1209       C  0.83298951  0.84139230  0.75108812    -0.09800
C1210       C  0.88338287  0.88927250  0.75095742    -0.11400
C1211       C  0.53274858  0.75142590  0.70481253    -0.13000
C1212       C  0.52470861  0.78100872  0.68499563    -0.28100
H1213       H  0.55228432  0.72066683  0.70211877     0.16100
H1214       H  0.50376126  0.81051233  0.68766089     0.16600
C1215       C  0.75228202  0.97337376  0.68497293    -0.13000
C1216       C  0.71500036  0.96490740  0.70493061    -0.28100
H1217       H  0.80260918  0.99474334  0.68754803     0.16100
H1218       H  0.66479825  0.94494856  0.70240639     0.16600
C1219       C  0.71995183  0.74534592  0.68502151    -0.13000
C1220       C  0.74961146  0.78276473  0.70488410    -0.28100
H1221       H  0.69176659  0.69474398  0.68756750     0.16100
H1222       H  0.77906609  0.83326595  0.70233996     0.16600
C1223       C  0.72812804  0.98764972  0.54682743    -0.13000
C1224       C  0.76361575  0.99133975  0.56669874    -0.28100
H1225       H  0.67736365  0.96269491  0.54860397     0.16100
H1226       H  0.81420262  0.01475946  0.56483297     0.16600
C1227       C  0.51100938  0.73972466  0.54709769    -0.13000
C1228       C  0.50715119  0.77234684  0.56669762    -0.28100
H1229       H  0.53554136  0.71340574  0.54922753     0.16100
H1230       H  0.48403431  0.79989578  0.56444754     0.16600
C1231       C  0.66600964  0.00582533  0.99972816    -0.09800
C1232       C  0.61581772  0.00361648  0.99946647    -0.11400
C1233       C  0.99505233  0.66060373  0.49973040    -0.09800
C1234       C  0.99688899  0.61220997  0.49967584    -0.11400
C1235       C  0.72452184  0.73282410  0.56719508    -0.13000
C1236       C  0.75918012  0.76877591  0.54785953    -0.28100
H1237       H  0.69600608  0.68226899  0.56493831     0.16100
H1238       H  0.78614422  0.81959506  0.55006078     0.16600
C1239       C  0.84167755  0.83338016  0.50187525    -0.09800
C1240       C  0.88904601  0.88420581  0.50163067    -0.11400
C1241       C  0.75004579  0.52848012  0.95391770    -0.13000
C1242       C  0.78212941  0.52366058  0.93425423    -0.28100
H1243       H  0.71910814  0.54772192  0.95119884     0.16100
H1244       H  0.81189410  0.50305088  0.93682122     0.16600
C1245       C  0.77524215  0.50936811  0.81636984    -0.13000
C1246       C  0.74166016  0.51189143  0.79688688    -0.28100
H1247       H  0.80296378  0.48646260  0.81417410     0.16100
H1248       H  0.71533587  0.53641427  0.79899039     0.16600
C1249       C  0.97955343  0.75774520  0.93362795    -0.13000
C1250       C  0.97354545  0.72062500  0.95340385    -0.28100
H1251       H  0.00115211  0.80831954  0.93610380     0.16100
H1252       H  0.95320650  0.67017501  0.95084098     0.16600
C1253       C  0.98666562  0.73160095  0.79632053    -0.13000
C1254       C  0.98931042  0.76809965  0.81569483    -0.28100
H1255       H  0.96387896  0.68087849  0.79877087     0.16100
H1256       H  0.01046696  0.81856069  0.81319119     0.16600
C1257       C  0.73434306  0.72578849  0.81686925    -0.13000
C1258       C  0.77057586  0.75856093  0.79726453    -0.28100
H1259       H  0.68391606  0.69782340  0.81458194     0.16100
H1260       H  0.82121600  0.78520008  0.79943739     0.16600
C1261       C  0.78322571  0.74897255  0.95547893    -0.13000
C1262       C  0.74609270  0.71906226  0.93559099    -0.28100
H1263       H  0.83332449  0.77975458  0.95286396     0.16100
H1264       H  0.69583318  0.68961460  0.93821877     0.16600
loop_ 
_geom_bond_atom_site_label_1 
_geom_bond_atom_site_label_2 
_geom_bond_distance 
_geom_bond_site_symmetry_2 
_ccdc_geom_bond_type 
O1          Cr19   1.954       .  S
O1            C9   1.256       .  A
O2          Cr19   2.020       .  S
O2            C3   1.269       .  A
C3            O4   1.256       .  A
C3          C148   1.462       .  S
O4          Cr20   1.951       .  S
O5          Cr20   2.019       .  S
O5            C6   1.268       .  A
C6            O7   1.256       .  A
C6          C151   1.462       .  S
O7          Cr21   1.952       .  S
O8          Cr21   2.020       .  S
O8            C9   1.269       .  A
C9          C139   1.464       .  S
O10         Cr19   2.009       .  S
O10          C18   1.265       .  A
O11         Cr19   1.966       .  S
O11          C12   1.255       .  A
C12          O13   1.264       .  A
C12         C143   1.470       .  S
O13         Cr20   2.007       .  S
O14         Cr20   1.966       .  S
O14          C15   1.255       .  A
C15          O16   1.265       .  A
C15         C156   1.471       .  S
O16         Cr21   2.008       .  S
O17         Cr21   1.965       .  S
O17          C18   1.255       .  A
C18         C136   1.470       .  S
Cr19         O22   1.773       .  S
Cr20         O22   1.775       .  S
Cr21         O22   1.774       .  S
N23          C27   1.354       .  A
N23         C182   1.353   1_554  A
N23         C133   1.409       .  S
C24         C155   1.480       .  S
C24         N181   1.353       .  A
C24          C25   1.383       .  A
C25         C184   1.373       .  A
C25          H28   1.082       .  S
C26          C27   1.389       .  A
C26         C183   1.373   1_554  A
C26          H29   1.081       .  S
C27         C130   1.486       .  S
C30         N347   1.358   1_545  A
C30         N667   1.358   1_554  A
C30         C128   1.440       .  S
N31          C32   1.358       .  A
N31         C346   1.358       .  A
C32          N33   1.358       .  A
C32         C134   1.441       .  S
N33         C982   1.358   1_554  A
C34          N35   1.358       .  A
C34         N981   1.358   1_546  A
C34         C600   1.442   1_556  S
N35         C662   1.358   1_455  A
N36         C672   1.353       .  A
N36         C195   1.353   1_554  A
N36         C127   1.409       .  S
C37         C144   1.479       .  S
C37         N194   1.353       .  A
C37          C38   1.383       .  A
C38         C829   1.373       .  A
C38          H41   1.081       .  S
C39          C40   1.387       .  A
C39         C828   1.373   1_554  A
C39          H42   1.081       .  S
C40         C121   1.484   1_655  S
C40         N668   1.353   1_554  A
N43         C363   1.354       .  A
N43         C202   1.353       .  A
N43         C125   1.409       .  S
C44         C117   1.486       .  S
C44         N201   1.354       .  A
C44          C45   1.388       .  A
C45         C520   1.373   1_554  A
C45          H48   1.081       .  S
C46          C47   1.384       .  A
C46         C519   1.373       .  A
C46          H49   1.082       .  S
C47         C135   1.479       .  S
C47         N359   1.354       .  A
O50         Cr68   2.006       .  S
O50          C58   1.263       .  A
O51         Cr68   1.969       .  S
O51          C52   1.256       .  A
C52          O53   1.265       .  A
C52         C109   1.472       .  S
O53         Cr69   2.009       .  S
O54         Cr69   1.966       .  S
O54          C55   1.256       .  A
C55          O56   1.264       .  A
C55         C113   1.470       .  S
O56         Cr70   2.008       .  S
O57         Cr70   1.965       .  S
O57          C58   1.255       .  A
C58         C106   1.469       .  S
O59         Cr68   1.953       .  S
O59          C67   1.256       .  A
O60         Cr68   2.019       .  S
O60          C61   1.268       .  A
C61          O62   1.256       .  A
C61         C118   1.463       .  S
O62         Cr69   1.954       .  S
O63         Cr69   2.020       .  S
O63          C64   1.269       .  A
C64          O65   1.256       .  A
C64         C129   1.463       .  S
O65         Cr70   1.952       .  S
O66         Cr70   2.019       .  S
O66          C67   1.269       .  A
C67         C122   1.461       .  S
Cr68         O71   1.775       .  S
Cr69         O71   1.773       .  S
Cr70         O71   1.773       .  S
N72          C76   1.354       .  A
N72          C73   1.354       .  A
N72         C103   1.410       .  S
C73         C114   1.479       .  S
C73          C74   1.384       .  A
C74          C75   1.372       .  A
C74          H77   1.081       .  S
C75          C76   1.388       .  A
C75          H78   1.081       .  S
C76         C152   1.484       .  S
C79          N84   1.359       .  A
C79        N1028   1.358   1_455  A
C79         C101   1.441       .  S
N80          C81   1.359       .  A
N80        C1027   1.359       .  A
C81          N82   1.358       .  A
C81         C104   1.442       .  S
N82         C715   1.358       .  A
C83         N714   1.358   1_455  A
C83         N400   1.359       .  A
C83          C99   1.442       .  S
N84         C399   1.358   1_545  A
N85          C89   1.353       .  A
N85         C718   1.353       .  A
N85         C102   1.409       .  S
C86         C147   1.484       .  S
C86         N717   1.353       .  A
C86          C87   1.389       .  A
C87         C720   1.373       .  A
C87          H90   1.081       .  S
C88          C89   1.384       .  A
C88         C719   1.373       .  A
C88          H91   1.082       .  S
C89         C105   1.477       .  S
N92          C93   1.354       .  A
N92         C412   1.355       .  A
N92         C100   1.410       .  S
C93         C110   1.480       .  S
C93          C94   1.383       .  A
C94         C411   1.373       .  A
C94          H97   1.082       .  S
C95          C96   1.389       .  A
C95         C410   1.373       .  A
C95          H98   1.081       .  S
C96         C140   1.487   1_565  S
C96         N408   1.355       .  A
C99         C100   1.210       .  T
C101        C102   1.209       .  T
C103        C104   1.209       .  T
C105        C106   1.346       .  D
C105        H107   1.086       .  S
C106        H108   1.086       .  S
C109        C110   1.348       .  D
C109        H111   1.086       .  S
C110        H112   1.086       .  S
C113        C114   1.347       .  D
C113        H115   1.086       .  S
C114        H116   1.086       .  S
C117        C118   1.344       .  D
C117        H119   1.087       .  S
C118        H120   1.084       .  S
C121        C122   1.343       .  D
C121        H123   1.087       .  S
C122        H124   1.085   1_455  S
C125        C126   1.209       .  T
C126        C508   1.441       .  S
C127        C128   1.209       .  T
C129        C130   1.343       .  D
C129        H131   1.084       .  S
C130        H132   1.087       .  S
C133        C134   1.209       .  T
C135        C136   1.347       .  D
C135        H137   1.087       .  S
C136        H138   1.086       .  S
C139        C140   1.344       .  D
C139        H141   1.084   1_545  S
C140        H142   1.087       .  S
C143        C144   1.347       .  D
C143        H145   1.086       .  S
C144        H146   1.086       .  S
C147        C148   1.342       .  D
C147        H149   1.087       .  S
C148        H150   1.084       .  S
C151        C152   1.343       .  D
C151        H153   1.085       .  S
C152        H154   1.087       .  S
C155        C156   1.348       .  D
C155        H157   1.087       .  S
C156        H158   1.086       .  S
O159       Cr177   1.954       .  S
O159        C167   1.256       .  A
O160       Cr177   2.020       .  S
O160        C161   1.269       .  A
C161        O162   1.256       .  A
C161        C306   1.462       .  S
O162       Cr178   1.951       .  S
O163       Cr178   2.020       .  S
O163        C164   1.268       .  A
C164        O165   1.256       .  A
C164        C309   1.463       .  S
O165       Cr179   1.953       .  S
O166       Cr179   2.019       .  S
O166        C167   1.268       .  A
C167        C297   1.463       .  S
O168       Cr177   2.009       .  S
O168        C176   1.265       .  A
O169       Cr177   1.967       .  S
O169        C170   1.256       .  A
C170        O171   1.264       .  A
C170        C301   1.469       .  S
O171       Cr178   2.006       .  S
O172       Cr178   1.967       .  S
O172        C173   1.256       .  A
C173        O174   1.265       .  A
C173        C314   1.471       .  S
O174       Cr179   2.008       .  S
O175       Cr179   1.966       .  S
O175        C176   1.255       .  A
C176        C294   1.471       .  S
Cr177       O180   1.773       .  S
Cr178       O180   1.775       .  S
Cr179       O180   1.773       .  S
N181        C185   1.354       .  A
N181        C291   1.409       .  S
C182        C313   1.480       .  S
C182        C183   1.383       .  A
C183        H186   1.082       .  S
C184        C185   1.389       .  A
C184        H187   1.081       .  S
C185        C288   1.486       .  S
C188        N505   1.358   1_545  A
C188        N825   1.358       .  A
C188        C286   1.440       .  S
N189        C504   1.358       .  A
N189        C190   1.358       .  A
C190        N191   1.358       .  A
C190        C292   1.441       .  S
N191       C1140   1.358       .  A
C192       N1139   1.358   1_545  A
C192        N193   1.358       .  A
C192        C442   1.441       .  S
N193        C820   1.358   1_455  A
N194        C830   1.354       .  A
N194        C285   1.409       .  S
C195        C302   1.479       .  S
C195        C196   1.384       .  A
C196        C671   1.373   1_556  A
C196        H199   1.082       .  S
C197        C670   1.372       .  A
C197        C198   1.388       .  A
C197        H200   1.081       .  S
C198        C279   1.483   1_655  S
C198        N826   1.353       .  A
N201        C521   1.354   1_554  A
N201        C283   1.410       .  S
C202        C275   1.485       .  S
C202        C203   1.388       .  A
C203        C362   1.373       .  A
C203        H206   1.081       .  S
C204        C361   1.373   1_556  A
C204        C205   1.384       .  A
C204        H207   1.082       .  S
C205        C293   1.480       .  S
C205        N517   1.354   1_556  A
O208       Cr226   2.007       .  S
O208        C216   1.264       .  A
O209       Cr226   1.968       .  S
O209        C210   1.256       .  A
C210        O211   1.264       .  A
C210        C267   1.470       .  S
O211       Cr227   2.008       .  S
O212       Cr227   1.966       .  S
O212        C213   1.256       .  A
C213        O214   1.265       .  A
C213        C271   1.470       .  S
O214       Cr228   2.009       .  S
O215       Cr228   1.965       .  S
O215        C216   1.256       .  A
C216        C264   1.468       .  S
O217       Cr226   1.951       .  S
O217        C225   1.256       .  A
O218       Cr226   2.019       .  S
O218        C219   1.269       .  A
C219        O220   1.256       .  A
C219        C276   1.462       .  S
O220       Cr227   1.952       .  S
O221       Cr227   2.019       .  S
O221        C222   1.268       .  A
C222        O223   1.256       .  A
C222        C287   1.463       .  S
O223       Cr228   1.954       .  S
O224       Cr228   2.018       .  S
O224        C225   1.268       .  A
C225        C280   1.461       .  S
Cr226       O229   1.775       .  S
Cr227       O229   1.773       .  S
Cr228       O229   1.773       .  S
N230        C234   1.354       .  A
N230        C231   1.354       .  A
N230        C261   1.409       .  S
C231        C272   1.480       .  S
C231        C232   1.384       .  A
C232        C233   1.373       .  A
C232        H235   1.081       .  S
C233        C234   1.388       .  A
C233        H236   1.081       .  S
C234        C310   1.485       .  S
C237       N1186   1.358   1_455  A
C237        N242   1.359       .  A
C237        C259   1.441       .  S
N238       C1185   1.358       .  A
N238        C239   1.359       .  A
C239        N240   1.358       .  A
C239        C262   1.441       .  S
N240        C873   1.358       .  A
C241        N872   1.359   1_455  A
C241        N558   1.359       .  A
C241        C257   1.443       .  S
N242        C557   1.359   1_545  A
N243        C247   1.353       .  A
N243        C876   1.353       .  A
N243        C260   1.409       .  S
C244        C305   1.485       .  S
C244        N875   1.353       .  A
C244        C245   1.389       .  A
C245        C878   1.373       .  A
C245        H248   1.081       .  S
C246        C877   1.373       .  A
C246        C247   1.384       .  A
C246        H249   1.082       .  S
C247        C263   1.477       .  S
N250        C570   1.355       .  A
N250        C251   1.354       .  A
N250        C258   1.410       .  S
C251        C268   1.479       .  S
C251        C252   1.384       .  A
C252        C569   1.372       .  A
C252        H255   1.082       .  S
C253        C568   1.372       .  A
C253        C254   1.389       .  A
C253        H256   1.081       .  S
C254        C298   1.486   1_565  S
C254        N566   1.355       .  A
C257        C258   1.210       .  T
C259        C260   1.209       .  T
C261        C262   1.209       .  T
C263        C264   1.346       .  D
C263        H265   1.086       .  S
C264        H266   1.086   1_455  S
C267        C268   1.347       .  D
C267        H269   1.086       .  S
C268        H270   1.087       .  S
C271        C272   1.347       .  D
C271        H273   1.086       .  S
C272        H274   1.086       .  S
C275        C276   1.343       .  D
C275        H277   1.087       .  S
C276        H278   1.084       .  S
C279        C280   1.343       .  D
C279        H281   1.087       .  S
C280        H282   1.085   1_455  S
C283        C284   1.209       .  T
C284        C350   1.442   1_554  S
C285        C286   1.209       .  T
C287        C288   1.344       .  D
C287        H289   1.084       .  S
C288        H290   1.087       .  S
C291        C292   1.209       .  T
C293        C294   1.348       .  D
C293        H295   1.086       .  S
C294        H296   1.086       .  S
C297        C298   1.344       .  D
C297        H299   1.084   1_545  S
C298        H300   1.087       .  S
C301        C302   1.347       .  D
C301        H303   1.086       .  S
C302        H304   1.087       .  S
C305        C306   1.343       .  D
C305        H307   1.087       .  S
C306        H308   1.084       .  S
C309        C310   1.344       .  D
C309        H311   1.085       .  S
C310        H312   1.087       .  S
C313        C314   1.348       .  D
C313        H315   1.087       .  S
C314        H316   1.086       .  S
O317       Cr335   1.954       .  S
O317        C325   1.256       .  A
O318       Cr335   2.020       .  S
O318        C319   1.269       .  A
C319        O320   1.256       .  A
C319        C464   1.461       .  S
O320       Cr336   1.950       .  S
O321       Cr336   2.019       .  S
O321        C322   1.268       .  A
C322        O323   1.256       .  A
C322        C467   1.462       .  S
O323       Cr337   1.953       .  S
O324       Cr337   2.020       .  S
O324        C325   1.269       .  A
C325        C455   1.464       .  S
O326       Cr335   2.008       .  S
O326        C334   1.265       .  A
O327       Cr335   1.966       .  S
O327        C328   1.255       .  A
C328        O329   1.264       .  A
C328        C459   1.469       .  S
O329       Cr336   2.007       .  S
O330       Cr336   1.966       .  S
O330        C331   1.255       .  A
C331        O332   1.264       .  A
C331        C472   1.470       .  S
O332       Cr337   2.008       .  S
O333       Cr337   1.966       .  S
O333        C334   1.256       .  A
C334        C452   1.470       .  S
Cr335       O338   1.773       .  S
Cr336       O338   1.775       .  S
Cr337       O338   1.773       .  S
N339        C343   1.354       .  A
N339        C498   1.353   1_554  A
N339        C449   1.409       .  S
C340        C471   1.479       .  S
C340        N497   1.353       .  A
C340        C341   1.383       .  A
C341        C500   1.373       .  A
C341        H344   1.082       .  S
C342        C499   1.374   1_554  A
C342        C343   1.389       .  A
C342        H345   1.081       .  S
C343        C446   1.486       .  S
C346        N983   1.359   1_554  A
C346        C444   1.440       .  S
N347        C348   1.358       .  A
C348        N349   1.358       .  A
C348        C450   1.440       .  S
N349        C666   1.358   1_564  A
C350        N665   1.358   1_556  A
C350        N351   1.358       .  A
N351        C978   1.358   1_455  A
N352        C988   1.353       .  A
N352        C511   1.353   1_554  A
N352        C443   1.409       .  S
C353        C460   1.479       .  S
C353        N510   1.353       .  A
C353        C354   1.383       .  A
C354       C1145   1.373       .  A
C354        H357   1.081       .  S
C355       C1144   1.373   1_554  A
C355        C356   1.387       .  A
C355        H358   1.081       .  S
C356        C437   1.484   1_655  S
C356        N984   1.353   1_554  A
N359        C518   1.353       .  A
N359        C441   1.409       .  S
C360        C433   1.486   1_545  S
C360        N517   1.354       .  A
C360        C361   1.388       .  A
C361        H364   1.081       .  S
C362        C363   1.384       .  A
C362        H365   1.082       .  S
C363        C451   1.479       .  S
O366       Cr384   2.006       .  S
O366        C374   1.263       .  A
O367       Cr384   1.969       .  S
O367        C368   1.256       .  A
C368        O369   1.265       .  A
C368        C425   1.472       .  S
O369       Cr385   2.009       .  S
O370       Cr385   1.965       .  S
O370        C371   1.255       .  A
C371        O372   1.264       .  A
C371        C429   1.470       .  S
O372       Cr386   2.008       .  S
O373       Cr386   1.965       .  S
O373        C374   1.256       .  A
C374        C422   1.469       .  S
O375       Cr384   1.952       .  S
O375        C383   1.256       .  A
O376       Cr384   2.019       .  S
O376        C377   1.268       .  A
C377        O378   1.256       .  A
C377        C434   1.463       .  S
O378       Cr385   1.954       .  S
O379       Cr385   2.020       .  S
O379        C380   1.269       .  A
C380        O381   1.256       .  A
C380        C445   1.463       .  S
O381       Cr386   1.953       .  S
O382       Cr386   2.019       .  S
O382        C383   1.269       .  A
C383        C438   1.462       .  S
Cr384       O387   1.775       .  S
Cr385       O387   1.773       .  S
Cr386       O387   1.774       .  S
N388        C392   1.354       .  A
N388        C389   1.354       .  A
N388        C419   1.410       .  S
C389        C430   1.479       .  S
C389        C390   1.384       .  A
C390        C391   1.372       .  A
C390        H393   1.081       .  S
C391        C392   1.388       .  A
C391        H394   1.081       .  S
C392        C468   1.484       .  S
C395        N712   1.358   1_455  A
C395        N400   1.359       .  A
C395        C417   1.441       .  S
N396        C711   1.359       .  A
N396        C397   1.359   1_545  A
C397        N398   1.358       .  A
C397        C420   1.442       .  S
N398       C1031   1.358       .  A
C399       N1030   1.358   1_455  A
C399        C415   1.442       .  S
N401        C405   1.353       .  A
N401       C1034   1.353       .  A
N401        C418   1.409       .  S
C402        C463   1.484       .  S
C402       N1033   1.352       .  A
C402        C403   1.388       .  A
C403       C1036   1.373       .  A
C403        H406   1.081       .  S
C404       C1035   1.373       .  A
C404        C405   1.384       .  A
C404        H407   1.082       .  S
C405        C421   1.478       .  S
N408        C409   1.354       .  A
N408        C416   1.410       .  S
C409        C426   1.481       .  S
C409        C410   1.383       .  A
C410        H413   1.082       .  S
C411        C412   1.389       .  A
C411        H414   1.081       .  S
C412        C456   1.488       .  S
C415        C416   1.210       .  T
C417        C418   1.209       .  T
C419        C420   1.209       .  T
C421        C422   1.346       .  D
C421        H423   1.086       .  S
C422        H424   1.086       .  S
C425        C426   1.348       .  D
C425        H427   1.086       .  S
C426        H428   1.086       .  S
C429        C430   1.348       .  D
C429        H431   1.086       .  S
C430        H432   1.086       .  S
C433        C434   1.344       .  D
C433        H435   1.087       .  S
C434        H436   1.084   1_565  S
C437        C438   1.343       .  D
C437        H439   1.087       .  S
C438        H440   1.085   1_455  S
C441        C442   1.209       .  T
C443        C444   1.209       .  T
C445        C446   1.344       .  D
C445        H447   1.084       .  S
C446        H448   1.087       .  S
C449        C450   1.209       .  T
C451        C452   1.347       .  D
C451        H453   1.087       .  S
C452        H454   1.086       .  S
C455        C456   1.344       .  D
C455        H457   1.084       .  S
C456        H458   1.087       .  S
C459        C460   1.347       .  D
C459        H461   1.086       .  S
C460        H462   1.086       .  S
C463        C464   1.342       .  D
C463        H465   1.087       .  S
C464        H466   1.085       .  S
C467        C468   1.343       .  D
C467        H469   1.085       .  S
C468        H470   1.087       .  S
C471        C472   1.347       .  D
C471        H473   1.087       .  S
C472        H474   1.086       .  S
O475       Cr493   1.953       .  S
O475        C483   1.256       .  A
O476       Cr493   2.021       .  S
O476        C477   1.269       .  A
C477        O478   1.256       .  A
C477        C622   1.462       .  S
O478       Cr494   1.951       .  S
O479       Cr494   2.020       .  S
O479        C480   1.268       .  A
C480        O481   1.256       .  A
C480        C625   1.463       .  S
O481       Cr495   1.954       .  S
O482       Cr495   2.018       .  S
O482        C483   1.268       .  A
C483        C613   1.463       .  S
O484       Cr493   2.009       .  S
O484        C492   1.265       .  A
O485       Cr493   1.967       .  S
O485        C486   1.256       .  A
C486        O487   1.263       .  A
C486        C617   1.469       .  S
O487       Cr494   2.006       .  S
O488       Cr494   1.967       .  S
O488        C489   1.256       .  A
C489        O490   1.265       .  A
C489        C630   1.471       .  S
O490       Cr495   2.008       .  S
O491       Cr495   1.966       .  S
O491        C492   1.256       .  A
C492        C610   1.471       .  S
Cr493       O496   1.773       .  S
Cr494       O496   1.775       .  S
Cr495       O496   1.773       .  S
N497        C501   1.354       .  A
N497        C607   1.409       .  S
C498        C629   1.480       .  S
C498        C499   1.383       .  A
C499        H502   1.082       .  S
C500        C501   1.389       .  A
C500        H503   1.081       .  S
C501        C604   1.486       .  S
C504       N1141   1.358       .  A
C504        C602   1.440       .  S
N505        C506   1.358       .  A
C506        N507   1.358       .  A
C506        C608   1.441       .  S
N507        C824   1.358   1_565  A
C508        N823   1.358       .  A
C508        N509   1.358       .  A
N509       C1136   1.358   1_455  A
N510       C1146   1.354       .  A
N510        C601   1.409       .  S
C511        C618   1.478       .  S
C511        C512   1.384       .  A
C512        C987   1.373   1_556  A
C512        H515   1.082       .  S
C513        C986   1.373       .  A
C513        C514   1.388       .  A
C513        H516   1.081       .  S
C514        C595   1.484   1_655  S
C514       N1142   1.353       .  A
N517        C599   1.410       .  S
C518        C591   1.485   1_545  S
C518        C519   1.388       .  A
C519        H522   1.081       .  S
C520        C521   1.384       .  A
C520        H523   1.082       .  S
C521        C609   1.480       .  S
O524       Cr542   2.006       .  S
O524        C532   1.263       .  A
O525       Cr542   1.967       .  S
O525        C526   1.256       .  A
C526        O527   1.265       .  A
C526        C583   1.470       .  S
O527       Cr543   2.008       .  S
O528       Cr543   1.966       .  S
O528        C529   1.256       .  A
C529        O530   1.265       .  A
C529        C587   1.470       .  S
O530       Cr544   2.009       .  S
O531       Cr544   1.965       .  S
O531        C532   1.256       .  A
C532        C580   1.469       .  S
O533       Cr542   1.951       .  S
O533        C541   1.256       .  A
O534       Cr542   2.019       .  S
O534        C535   1.268       .  A
C535        O536   1.256       .  A
C535        C592   1.462       .  S
O536       Cr543   1.952       .  S
O537       Cr543   2.019       .  S
O537        C538   1.268       .  A
C538        O539   1.256       .  A
C538        C603   1.463       .  S
O539       Cr544   1.954       .  S
O540       Cr544   2.019       .  S
O540        C541   1.269       .  A
C541        C596   1.461       .  S
Cr542       O545   1.775       .  S
Cr543       O545   1.773       .  S
Cr544       O545   1.773       .  S
N546        C550   1.354       .  A
N546        C547   1.354       .  A
N546        C577   1.409       .  S
C547        C588   1.480       .  S
C547        C548   1.384       .  A
C548        C549   1.373       .  A
C548        H551   1.081       .  S
C549        C550   1.388       .  A
C549        H552   1.081       .  S
C550        C626   1.485       .  S
C553        N870   1.358   1_455  A
C553        N558   1.359       .  A
C553        C575   1.441       .  S
N554        C869   1.359       .  A
N554        C555   1.359   1_545  A
C555        N556   1.358       .  A
C555        C578   1.441       .  S
N556       C1189   1.358       .  A
C557       N1188   1.359   1_455  A
C557        C573   1.443       .  S
N559        C563   1.353       .  A
N559       C1192   1.353       .  A
N559        C576   1.409       .  S
C560        C621   1.484       .  S
C560       N1191   1.353       .  A
C560        C561   1.389       .  A
C561       C1194   1.373       .  A
C561        H564   1.081       .  S
C562       C1193   1.373       .  A
C562        C563   1.384       .  A
C562        H565   1.082       .  S
C563        C579   1.478       .  S
N566        C567   1.354       .  A
N566        C574   1.410       .  S
C567        C584   1.479       .  S
C567        C568   1.384       .  A
C568        H571   1.082       .  S
C569        C570   1.389       .  A
C569        H572   1.080       .  S
C570        C614   1.486       .  S
C573        C574   1.210       .  T
C575        C576   1.209       .  T
C577        C578   1.209       .  T
C579        C580   1.346       .  D
C579        H581   1.086       .  S
C580        H582   1.086   1_455  S
C583        C584   1.347       .  D
C583        H585   1.086       .  S
C584        H586   1.086       .  S
C587        C588   1.348       .  D
C587        H589   1.086       .  S
C588        H590   1.086       .  S
C591        C592   1.343       .  D
C591        H593   1.087       .  S
C592        H594   1.084   1_565  S
C595        C596   1.343       .  D
C595        H597   1.087       .  S
C596        H598   1.085   1_455  S
C599        C600   1.209       .  T
C601        C602   1.209       .  T
C603        C604   1.344       .  D
C603        H605   1.084       .  S
C604        H606   1.087       .  S
C607        C608   1.209       .  T
C609        C610   1.348       .  D
C609        H611   1.086       .  S
C610        H612   1.086       .  S
C613        C614   1.344       .  D
C613        H615   1.084       .  S
C614        H616   1.087       .  S
C617        C618   1.347       .  D
C617        H619   1.086       .  S
C618        H620   1.086       .  S
C621        C622   1.342       .  D
C621        H623   1.087       .  S
C622        H624   1.084       .  S
C625        C626   1.344       .  D
C625        H627   1.085       .  S
C626        H628   1.087       .  S
C629        C630   1.347       .  D
C629        H631   1.087       .  S
C630        H632   1.086       .  S
O633       Cr651   1.954       .  S
O633        C641   1.256       .  A
O634       Cr651   2.019       .  S
O634        C635   1.269       .  A
C635        O636   1.256       .  A
C635        C780   1.461       .  S
O636       Cr652   1.951       .  S
O637       Cr652   2.020       .  S
O637        C638   1.269       .  A
C638        O639   1.256       .  A
C638        C783   1.463       .  S
O639       Cr653   1.953       .  S
O640       Cr653   2.020       .  S
O640        C641   1.268       .  A
C641        C771   1.464       .  S
O642       Cr651   2.009       .  S
O642        C650   1.265       .  A
O643       Cr651   1.965       .  S
O643        C644   1.255       .  A
C644        O645   1.264       .  A
C644        C775   1.469       .  S
O645       Cr652   2.007       .  S
O646       Cr652   1.968       .  S
O646        C647   1.256       .  A
C647        O648   1.265       .  A
C647        C788   1.471       .  S
O648       Cr653   2.009       .  S
O649       Cr653   1.965       .  S
O649        C650   1.256       .  A
C650        C768   1.471       .  S
Cr651       O654   1.774       .  S
Cr652       O654   1.775       .  S
Cr653       O654   1.774       .  S
N655        C659   1.355       .  A
N655        C814   1.354   1_554  A
N655        C765   1.410       .  S
C656        C787   1.480       .  S
C656        N813   1.354       .  A
C656        C657   1.383       .  A
C657        C816   1.373       .  A
C657        H660   1.082       .  S
C658        C815   1.373   1_554  A
C658        C659   1.389       .  A
C658        H661   1.081       .  S
C659        C762   1.487       .  S
C662        N979   1.359   1_546  A
C662        C760   1.441       .  S
N663        C978   1.359   1_554  A
N663        C664   1.358       .  A
C664        N665   1.359   1_655  A
C664        C766   1.442       .  S
C666        N667   1.358       .  A
C666       C1232   1.441       .  S
N668        C827   1.354       .  A
N668        C759   1.409       .  S
C669        C776   1.478       .  S
C669        N826   1.353       .  A
C669        C670   1.384       .  A
C670        H673   1.082       .  S
C671        C672   1.388       .  A
C671        H674   1.081       .  S
C672        C753   1.484       .  S
N675        C995   1.354       .  A
N675        C834   1.354       .  A
N675        C757   1.409       .  S
C676        C749   1.485       .  S
C676        N833   1.353       .  A
C676        C677   1.388       .  A
C677       C1152   1.373   1_554  A
C677        H680   1.081       .  S
C678       C1151   1.373       .  A
C678        C679   1.384       .  A
C678        H681   1.082       .  S
C679        C767   1.479       .  S
C679        N991   1.354       .  A
O682       Cr700   2.006       .  S
O682        C690   1.264       .  A
O683       Cr700   1.969       .  S
O683        C684   1.256       .  A
C684        O685   1.264       .  A
C684        C741   1.471       .  S
O685       Cr701   2.008       .  S
O686       Cr701   1.966       .  S
O686        C687   1.255       .  A
C687        O688   1.265       .  A
C687        C745   1.471       .  S
O688       Cr702   2.009       .  S
O689       Cr702   1.965       .  S
O689        C690   1.256       .  A
C690        C738   1.469       .  S
O691       Cr700   1.953       .  S
O691        C699   1.257       .  A
O692       Cr700   2.021       .  S
O692        C693   1.269       .  A
C693        O694   1.256       .  A
C693        C750   1.463       .  S
O694       Cr701   1.952       .  S
O695       Cr701   2.020       .  S
O695        C696   1.269       .  A
C696        O697   1.256       .  A
C696        C761   1.464       .  S
O697       Cr702   1.954       .  S
O698       Cr702   2.019       .  S
O698        C699   1.269       .  A
C699        C754   1.462       .  S
Cr700       O703   1.775       .  S
Cr701       O703   1.773       .  S
Cr702       O703   1.773       .  S
N704        C708   1.354       .  A
N704        C705   1.355       .  A
N704        C735   1.410       .  S
C705        C746   1.480       .  S
C705        C706   1.384       .  A
C706        C707   1.372       .  A
C706        H709   1.082       .  S
C707        C708   1.388       .  A
C707        H710   1.081       .  S
C708        C784   1.486       .  S
C711        N716   1.359       .  A
C711        C733   1.441       .  S
N712        C713   1.358       .  A
C713        N714   1.358       .  A
C713        C736   1.442       .  S
C715       N1032   1.358       .  A
C715        C731   1.441       .  S
N716       C1031   1.358   1_545  A
N717        C721   1.353       .  A
N717        C734   1.409       .  S
C718        C779   1.484   1_455  S
C718        C719   1.388       .  A
C719        H722   1.080       .  S
C720        C721   1.384       .  A
C720        H723   1.082       .  S
C721        C737   1.478       .  S
N724       C1044   1.355       .  A
N724        C725   1.354       .  A
N724        C732   1.409       .  S
C725        C742   1.481       .  S
C725        C726   1.384       .  A
C726       C1043   1.373       .  A
C726        H729   1.082       .  S
C727       C1042   1.373       .  A
C727        C728   1.389       .  A
C727        H730   1.081       .  S
C728        C772   1.488   1_565  S
C728       N1040   1.355       .  A
C731        C732   1.209       .  T
C733        C734   1.209       .  T
C735        C736   1.209       .  T
C737        C738   1.346       .  D
C737        H739   1.087       .  S
C738        H740   1.086       .  S
C741        C742   1.348       .  D
C741        H743   1.086       .  S
C742        H744   1.087       .  S
C745        C746   1.348       .  D
C745        H747   1.086       .  S
C746        H748   1.086       .  S
C749        C750   1.343       .  D
C749        H751   1.087       .  S
C750        H752   1.085       .  S
C753        C754   1.343       .  D
C753        H755   1.087       .  S
C754        H756   1.084       .  S
C757        C758   1.209       .  T
C758       C1140   1.441       .  S
C759        C760   1.209       .  T
C761        C762   1.345       .  D
C761        H763   1.084       .  S
C762        H764   1.087       .  S
C765        C766   1.210       .  T
C767        C768   1.348       .  D
C767        H769   1.086       .  S
C768        H770   1.086       .  S
C771        C772   1.345       .  D
C771        H773   1.084   1_545  S
C772        H774   1.087       .  S
C775        C776   1.347       .  D
C775        H777   1.086   1_655  S
C776        H778   1.086       .  S
C779        C780   1.343       .  D
C779        H781   1.087       .  S
C780        H782   1.084   1_655  S
C783        C784   1.344       .  D
C783        H785   1.084       .  S
C784        H786   1.087       .  S
C787        C788   1.348       .  D
C787        H789   1.087       .  S
C788        H790   1.086       .  S
O791       Cr809   1.954       .  S
O791        C799   1.256       .  A
O792       Cr809   2.018       .  S
O792        C793   1.268       .  A
C793        O794   1.256       .  A
C793        C938   1.461       .  S
O794       Cr810   1.951       .  S
O795       Cr810   2.020       .  S
O795        C796   1.269       .  A
C796        O797   1.256       .  A
C796        C941   1.463       .  S
O797       Cr811   1.953       .  S
O798       Cr811   2.019       .  S
O798        C799   1.268       .  A
C799        C929   1.463       .  S
O800       Cr809   2.009       .  S
O800        C808   1.265       .  A
O801       Cr809   1.966       .  S
O801        C802   1.256       .  A
C802        O803   1.264       .  A
C802        C933   1.470       .  S
O803       Cr810   2.007       .  S
O804       Cr810   1.968       .  S
O804        C805   1.256       .  A
C805        O806   1.265       .  A
C805        C946   1.471       .  S
O806       Cr811   2.009       .  S
O807       Cr811   1.964       .  S
O807        C808   1.256       .  A
C808        C926   1.471       .  S
Cr809       O812   1.773       .  S
Cr810       O812   1.774       .  S
Cr811       O812   1.774       .  S
N813        C817   1.354       .  A
N813        C923   1.409       .  S
C814        C945   1.481       .  S
C814        C815   1.383       .  A
C815        H818   1.082       .  S
C816        C817   1.389       .  A
C816        H819   1.081       .  S
C817        C920   1.487       .  S
C820       N1137   1.359   1_545  A
C820        C918   1.441       .  S
N821       C1136   1.359       .  A
N821        C822   1.358       .  A
C822        N823   1.358   1_655  A
C822        C924   1.441       .  S
C824        N825   1.359       .  A
C824       C1074   1.441       .  S
N826        C917   1.409       .  S
C827        C934   1.479       .  S
C827        C828   1.384       .  A
C828        H831   1.081       .  S
C829        C830   1.388       .  A
C829        H832   1.081       .  S
C830        C911   1.485       .  S
N833       C1153   1.354   1_554  A
N833        C915   1.409   1_554  S
C834        C907   1.485       .  S
C834        C835   1.388       .  A
C835        C994   1.373       .  A
C835        H838   1.081       .  S
C836        C993   1.373   1_556  A
C836        C837   1.384       .  A
C836        H839   1.081       .  S
C837        C925   1.480       .  S
C837       N1149   1.354   1_556  A
O840       Cr858   2.006       .  S
O840        C848   1.264       .  A
O841       Cr858   1.968       .  S
O841        C842   1.256       .  A
C842        O843   1.264       .  A
C842        C899   1.470       .  S
O843       Cr859   2.007       .  S
O844       Cr859   1.967       .  S
O844        C845   1.255       .  A
C845        O846   1.265       .  A
C845        C903   1.471       .  S
O846       Cr860   2.009       .  S
O847       Cr860   1.965       .  S
O847        C848   1.255       .  A
C848        C896   1.469       .  S
O849       Cr858   1.953       .  S
O849        C857   1.257       .  A
O850       Cr858   2.020       .  S
O850        C851   1.269       .  A
C851        O852   1.256       .  A
C851        C908   1.462       .  S
O852       Cr859   1.953       .  S
O853       Cr859   2.019       .  S
O853        C854   1.269       .  A
C854        O855   1.256       .  A
C854        C919   1.463       .  S
O855       Cr860   1.953       .  S
O856       Cr860   2.020       .  S
O856        C857   1.269       .  A
C857        C912   1.462       .  S
Cr858       O861   1.774       .  S
Cr859       O861   1.773       .  S
Cr860       O861   1.773       .  S
N862        C866   1.354       .  A
N862        C863   1.355       .  A
N862        C893   1.410       .  S
C863        C904   1.480       .  S
C863        C864   1.384       .  A
C864        C865   1.372       .  A
C864        H867   1.081       .  S
C865        C866   1.388       .  A
C865        H868   1.081       .  S
C866        C942   1.486       .  S
C869        N874   1.358       .  A
C869        C891   1.441       .  S
N870        C871   1.358       .  A
C871        N872   1.358       .  A
C871        C894   1.442       .  S
C873       N1190   1.358       .  A
C873        C889   1.441       .  S
N874       C1189   1.358   1_545  A
N875        C879   1.352       .  A
N875        C892   1.409       .  S
C876        C937   1.483   1_455  S
C876        C877   1.388       .  A
C877        H880   1.080       .  S
C878        C879   1.383       .  A
C878        H881   1.082       .  S
C879        C895   1.477       .  S
N882       C1202   1.354       .  A
N882        C883   1.353       .  A
N882        C890   1.409       .  S
C883        C900   1.479       .  S
C883        C884   1.384       .  A
C884       C1201   1.373       .  A
C884        H887   1.082       .  S
C885       C1200   1.373       .  A
C885        C886   1.389       .  A
C885        H888   1.081       .  S
C886        C930   1.486   1_565  S
C886       N1198   1.354       .  A
C889        C890   1.209       .  T
C891        C892   1.209       .  T
C893        C894   1.210       .  T
C895        C896   1.346       .  D
C895        H897   1.087       .  S
C896        H898   1.086       .  S
C899        C900   1.347       .  D
C899        H901   1.086       .  S
C900        H902   1.087       .  S
C903        C904   1.348       .  D
C903        H905   1.086       .  S
C904        H906   1.086       .  S
C907        C908   1.343       .  D
C907        H909   1.087       .  S
C908        H910   1.084       .  S
C911        C912   1.343       .  D
C911        H913   1.087       .  S
C912        H914   1.085       .  S
C915        C916   1.209       .  T
C916        C982   1.441       .  S
C917        C918   1.209       .  T
C919        C920   1.344       .  D
C919        H921   1.084       .  S
C920        H922   1.087       .  S
C923        C924   1.209       .  T
C925        C926   1.348       .  D
C925        H927   1.086       .  S
C926        H928   1.086       .  S
C929        C930   1.344       .  D
C929        H931   1.084   1_545  S
C930        H932   1.087       .  S
C933        C934   1.347       .  D
C933        H935   1.086   1_655  S
C934        H936   1.086       .  S
C937        C938   1.342       .  D
C937        H939   1.087       .  S
C938        H940   1.084   1_655  S
C941        C942   1.344       .  D
C941        H943   1.084       .  S
C942        H944   1.087       .  S
C945        C946   1.348       .  D
C945        H947   1.086       .  S
C946        H948   1.086       .  S
O949       Cr967   1.954       .  S
O949        C957   1.256       .  A
O950       Cr967   2.019       .  S
O950        C951   1.269       .  A
C951        O952   1.256       .  A
C951       C1096   1.462       .  S
O952       Cr968   1.952       .  S
O953       Cr968   2.020       .  S
O953        C954   1.269       .  A
C954        O955   1.256       .  A
C954       C1099   1.463       .  S
O955       Cr969   1.953       .  S
O956       Cr969   2.020       .  S
O956        C957   1.268       .  A
C957       C1087   1.464       .  S
O958       Cr967   2.010       .  S
O958        C966   1.265       .  A
O959       Cr967   1.965       .  S
O959        C960   1.255       .  A
C960        O961   1.264       .  A
C960       C1091   1.469       .  S
O961       Cr968   2.007       .  S
O962       Cr968   1.968       .  S
O962        C963   1.256       .  A
C963        O964   1.265       .  A
C963       C1104   1.471       .  S
O964       Cr969   2.009       .  S
O965       Cr969   1.965       .  S
O965        C966   1.256       .  A
C966       C1084   1.471       .  S
Cr967       O970   1.774       .  S
Cr968       O970   1.775       .  S
Cr969       O970   1.774       .  S
N971        C975   1.355       .  A
N971       C1130   1.354   1_554  A
N971       C1081   1.410       .  S
C972       C1103   1.480       .  S
C972       N1129   1.354       .  A
C972        C973   1.383       .  A
C973       C1132   1.373       .  A
C973        H976   1.082       .  S
C974       C1131   1.373   1_554  A
C974        C975   1.389       .  A
C974        H977   1.081       .  S
C975       C1078   1.487       .  S
C978       C1076   1.441       .  S
N979        C980   1.358       .  A
C980        N981   1.359   1_655  A
C980       C1082   1.442       .  S
C982        N983   1.359       .  A
N984       C1143   1.354       .  A
N984       C1075   1.409       .  S
C985       C1092   1.478       .  S
C985       N1142   1.353       .  A
C985        C986   1.384       .  A
C986        H989   1.082       .  S
C987        C988   1.388       .  A
C987        H990   1.081       .  S
C988       C1069   1.484       .  S
N991       C1150   1.354       .  A
N991       C1073   1.409       .  S
C992       C1065   1.485   1_545  S
C992       N1149   1.353       .  A
C992        C993   1.388       .  A
C993        H996   1.081       .  S
C994        C995   1.384       .  A
C994        H997   1.082       .  S
C995       C1083   1.480       .  S
O998      Cr1016   2.006       .  S
O998       C1006   1.263       .  A
O999      Cr1016   1.969       .  S
O999       C1000   1.256       .  A
C1000      O1001   1.264       .  A
C1000      C1057   1.471       .  S
O1001     Cr1017   2.007       .  S
O1002     Cr1017   1.967       .  S
O1002      C1003   1.255       .  A
C1003      O1004   1.265       .  A
C1003      C1061   1.471       .  S
O1004     Cr1018   2.009       .  S
O1005     Cr1018   1.965       .  S
O1005      C1006   1.256       .  A
C1006      C1054   1.469       .  S
O1007     Cr1016   1.953       .  S
O1007      C1015   1.257       .  A
O1008     Cr1016   2.021       .  S
O1008      C1009   1.269       .  A
C1009      O1010   1.256       .  A
C1009      C1066   1.463       .  S
O1010     Cr1017   1.952       .  S
O1011     Cr1017   2.020       .  S
O1011      C1012   1.269       .  A
C1012      O1013   1.256       .  A
C1012      C1077   1.464       .  S
O1013     Cr1018   1.954       .  S
O1014     Cr1018   2.019       .  S
O1014      C1015   1.268       .  A
C1015      C1070   1.461       .  S
Cr1016     O1019   1.775       .  S
Cr1017     O1019   1.773       .  S
Cr1018     O1019   1.773       .  S
N1020      C1024   1.354       .  A
N1020      C1021   1.354       .  A
N1020      C1051   1.410       .  S
C1021      C1062   1.480       .  S
C1021      C1022   1.384       .  A
C1022      C1023   1.373       .  A
C1022      H1025   1.082       .  S
C1023      C1024   1.388       .  A
C1023      H1026   1.081       .  S
C1024      C1100   1.486       .  S
C1027      N1032   1.359       .  A
C1027      C1049   1.441       .  S
N1028      C1029   1.358   1_545  A
C1029      N1030   1.358       .  A
C1029      C1052   1.442       .  S
C1031      C1047   1.441       .  S
N1033      C1037   1.353       .  A
N1033      C1050   1.409       .  S
C1034      C1095   1.485   1_455  S
C1034      C1035   1.388       .  A
C1035      H1038   1.080       .  S
C1036      C1037   1.384       .  A
C1036      H1039   1.081       .  S
C1037      C1053   1.477       .  S
N1040      C1041   1.354       .  A
N1040      C1048   1.409       .  S
C1041      C1058   1.481       .  S
C1041      C1042   1.383       .  A
C1042      H1045   1.082       .  S
C1043      C1044   1.389       .  A
C1043      H1046   1.081       .  S
C1044      C1088   1.488       .  S
C1047      C1048   1.209       .  T
C1049      C1050   1.209       .  T
C1051      C1052   1.209       .  T
C1053      C1054   1.346       .  D
C1053      H1055   1.087       .  S
C1054      H1056   1.086       .  S
C1057      C1058   1.348       .  D
C1057      H1059   1.086       .  S
C1058      H1060   1.087       .  S
C1061      C1062   1.348       .  D
C1061      H1063   1.086       .  S
C1062      H1064   1.086       .  S
C1065      C1066   1.343       .  D
C1065      H1067   1.087       .  S
C1066      H1068   1.085   1_565  S
C1069      C1070   1.343       .  D
C1069      H1071   1.087       .  S
C1070      H1072   1.084       .  S
C1073      C1074   1.209       .  T
C1075      C1076   1.209       .  T
C1077      C1078   1.344       .  D
C1077      H1079   1.084       .  S
C1078      H1080   1.087       .  S
C1081      C1082   1.210       .  T
C1083      C1084   1.348       .  D
C1083      H1085   1.086       .  S
C1084      H1086   1.086       .  S
C1087      C1088   1.345       .  D
C1087      H1089   1.084       .  S
C1088      H1090   1.087       .  S
C1091      C1092   1.347       .  D
C1091      H1093   1.086   1_655  S
C1092      H1094   1.086       .  S
C1095      C1096   1.343       .  D
C1095      H1097   1.087       .  S
C1096      H1098   1.084   1_655  S
C1099      C1100   1.344       .  D
C1099      H1101   1.084       .  S
C1100      H1102   1.087       .  S
C1103      C1104   1.348       .  D
C1103      H1105   1.087       .  S
C1104      H1106   1.086       .  S
O1107     Cr1125   1.954       .  S
O1107      C1115   1.256       .  A
O1108     Cr1125   2.018       .  S
O1108      C1109   1.268       .  A
C1109      O1110   1.256       .  A
C1109      C1254   1.461       .  S
O1110     Cr1126   1.951       .  S
O1111     Cr1126   2.020       .  S
O1111      C1112   1.269       .  A
C1112      O1113   1.256       .  A
C1112      C1257   1.463       .  S
O1113     Cr1127   1.952       .  S
O1114     Cr1127   2.019       .  S
O1114      C1115   1.268       .  A
C1115      C1245   1.463       .  S
O1116     Cr1125   2.010       .  S
O1116      C1124   1.265       .  A
O1117     Cr1125   1.966       .  S
O1117      C1118   1.256       .  A
C1118      O1119   1.264       .  A
C1118      C1249   1.470       .  S
O1119     Cr1126   2.007       .  S
O1120     Cr1126   1.969       .  S
O1120      C1121   1.256       .  A
C1121      O1122   1.265       .  A
C1121      C1262   1.472       .  S
O1122     Cr1127   2.009       .  S
O1123     Cr1127   1.964       .  S
O1123      C1124   1.256       .  A
C1124      C1242   1.471       .  S
Cr1125     O1128   1.773       .  S
Cr1126     O1128   1.775       .  S
Cr1127     O1128   1.774       .  S
N1129      C1133   1.354       .  A
N1129      C1239   1.409       .  S
C1130      C1261   1.481       .  S
C1130      C1131   1.383       .  A
C1131      H1134   1.082       .  S
C1132      C1133   1.389       .  A
C1132      H1135   1.081       .  S
C1133      C1236   1.486       .  S
C1136      C1234   1.441       .  S
N1137      C1138   1.358       .  A
C1138      N1139   1.358   1_655  A
C1138      C1240   1.441       .  S
C1140      N1141   1.359       .  A
N1142      C1233   1.409       .  S
C1143      C1250   1.480       .  S
C1143      C1144   1.384       .  A
C1144      H1147   1.081       .  S
C1145      C1146   1.388       .  A
C1145      H1148   1.081       .  S
C1146      C1227   1.485       .  S
N1149      C1231   1.409   1_554  S
C1150      C1223   1.485   1_545  S
C1150      C1151   1.388       .  A
C1151      H1154   1.081       .  S
C1152      C1153   1.384       .  A
C1152      H1155   1.081       .  S
C1153      C1241   1.480       .  S
O1156     Cr1174   2.006       .  S
O1156      C1164   1.263       .  A
O1157     Cr1174   1.967       .  S
O1157      C1158   1.256       .  A
C1158      O1159   1.264       .  A
C1158      C1215   1.470       .  S
O1159     Cr1175   2.007       .  S
O1160     Cr1175   1.967       .  S
O1160      C1161   1.255       .  A
C1161      O1162   1.264       .  A
C1161      C1219   1.470       .  S
O1162     Cr1176   2.009       .  S
O1163     Cr1176   1.965       .  S
O1163      C1164   1.255       .  A
C1164      C1212   1.469       .  S
O1165     Cr1174   1.953       .  S
O1165      C1173   1.257       .  A
O1166     Cr1174   2.019       .  S
O1166      C1167   1.268       .  A
C1167      O1168   1.256       .  A
C1167      C1224   1.462       .  S
O1168     Cr1175   1.953       .  S
O1169     Cr1175   2.020       .  S
O1169      C1170   1.269       .  A
C1170      O1171   1.256       .  A
C1170      C1235   1.463       .  S
O1171     Cr1176   1.952       .  S
O1172     Cr1176   2.020       .  S
O1172      C1173   1.269       .  A
C1173      C1228   1.462       .  S
Cr1174     O1177   1.774       .  S
Cr1175     O1177   1.773       .  S
Cr1176     O1177   1.773       .  S
N1178      C1182   1.354       .  A
N1178      C1179   1.354       .  A
N1178      C1209   1.410       .  S
C1179      C1220   1.480       .  S
C1179      C1180   1.384       .  A
C1180      C1181   1.372       .  A
C1180      H1183   1.082       .  S
C1181      C1182   1.388       .  A
C1181      H1184   1.081       .  S
C1182      C1258   1.486       .  S
C1185      N1190   1.358       .  A
C1185      C1207   1.440       .  S
N1186      C1187   1.358   1_545  A
C1187      N1188   1.358       .  A
C1187      C1210   1.442       .  S
C1189      C1205   1.441       .  S
N1191      C1195   1.352       .  A
N1191      C1208   1.409       .  S
C1192      C1253   1.484   1_455  S
C1192      C1193   1.388       .  A
C1193      H1196   1.080       .  S
C1194      C1195   1.383       .  A
C1194      H1197   1.082       .  S
C1195      C1211   1.477       .  S
N1198      C1199   1.353       .  A
N1198      C1206   1.409       .  S
C1199      C1216   1.479       .  S
C1199      C1200   1.383       .  A
C1200      H1203   1.082       .  S
C1201      C1202   1.389       .  A
C1201      H1204   1.081       .  S
C1202      C1246   1.486       .  S
C1205      C1206   1.209       .  T
C1207      C1208   1.209       .  T
C1209      C1210   1.210       .  T
C1211      C1212   1.346       .  D
C1211      H1213   1.087       .  S
C1212      H1214   1.086       .  S
C1215      C1216   1.347       .  D
C1215      H1217   1.086       .  S
C1216      H1218   1.087       .  S
C1219      C1220   1.348       .  D
C1219      H1221   1.086       .  S
C1220      H1222   1.086       .  S
C1223      C1224   1.343       .  D
C1223      H1225   1.087       .  S
C1224      H1226   1.084   1_565  S
C1227      C1228   1.343       .  D
C1227      H1229   1.087       .  S
C1228      H1230   1.085       .  S
C1231      C1232   1.209       .  T
C1233      C1234   1.209       .  T
C1235      C1236   1.344       .  D
C1235      H1237   1.084       .  S
C1236      H1238   1.087       .  S
C1239      C1240   1.209       .  T
C1241      C1242   1.348       .  D
C1241      H1243   1.086       .  S
C1242      H1244   1.086       .  S
C1245      C1246   1.344       .  D
C1245      H1247   1.084       .  S
C1246      H1248   1.087       .  S
C1249      C1250   1.347       .  D
C1249      H1251   1.086   1_655  S
C1250      H1252   1.086       .  S
C1253      C1254   1.343       .  D
C1253      H1255   1.087       .  S
C1254      H1256   1.084   1_655  S
C1257      C1258   1.344       .  D
C1257      H1259   1.084       .  S
C1258      H1260   1.087       .  S
C1261      C1262   1.348       .  D
C1261      H1263   1.086       .  S
C1262      H1264   1.086       .  S
