geometry optimzed in LAMMPS
_audit_creation_date              2020-11-30 
_audit_creation_method            'lammps2cif' 
_symmetry_space_group_name_H-M    'P1' 
_symmetry_Int_Tables_number       1 
_symmetry_cell_setting            triclinic 
loop_ 
_symmetry_equiv_pos_as_xyz 
  x,y,z 
_cell_length_a                    35.42108556 
_cell_length_b                    35.39267434944393 
_cell_length_c                    87.21672675172074 
_cell_angle_alpha                 90.10494624718233 
_cell_angle_beta                  90.0127379172059 
_cell_angle_gamma                 120.21630145243472 
loop_ 
_atom_site_label 
_atom_site_type_symbol 
_atom_site_fract_x 
_atom_site_fract_y 
_atom_site_fract_z 
_atom_site_charge 
C1          C  0.66352030  0.06781448  0.72138296     0.03200
C2          C  0.69942738  0.08433762  0.71148401    -0.13000
C3          C  0.70845476  0.05629096  0.70278789     0.00700
C4          C  0.67839591  0.01105252  0.70310593    -0.11500
C5          C  0.63894866  0.99452153  0.71122750     0.03100
C6          C  0.63289425  0.02282817  0.72092061    -0.10900
H7          H  0.72061372  0.11938875  0.71074851     0.08700
H8          H  0.68442158  0.98872950  0.69648284     0.06300
H9          H  0.60370202  0.00991794  0.72787879     0.06100
C10         C  0.78139498  0.07806193  0.66807296     0.03200
C11         C  0.81647403  0.11926417  0.67184567    -0.13000
C12         C  0.81961297  0.13741076  0.68640443     0.00700
C13         C  0.78589542  0.11416236  0.69698873    -0.11500
C14         C  0.74771605  0.07519665  0.69270264     0.03100
C15         C  0.74646915  0.05655645  0.67829369    -0.10900
H16         H  0.84198448  0.13681646  0.66345069     0.08700
H17         H  0.78891796  0.12722200  0.70844130     0.06300
H18         H  0.71825695  0.02607850  0.67476409     0.06100
C19         C  0.50447670  0.75253070  0.83105061     0.03200
C20         C  0.51803625  0.79690701  0.83253161    -0.13000
C21         C  0.54782232  0.82206310  0.84388929     0.00700
C22         C  0.56685830  0.80390607  0.85308002    -0.11500
C23         C  0.55349144  0.75903247  0.85205919     0.03100
C24         C  0.52115344  0.73342187  0.84107539    -0.10900
H25         H  0.50428299  0.81157859  0.82515908     0.08700
H26         H  0.59181214  0.82554554  0.86102691     0.06300
H27         H  0.50827249  0.69861507  0.84016609     0.06100
C28         C  0.61790168  0.74621554  0.88476835     0.03200
C29         C  0.61700248  0.70773989  0.88058132    -0.13000
C30         C  0.59236827  0.68327889  0.86798121     0.00700
C31         C  0.57151436  0.69975294  0.85870259    -0.11500
C32         C  0.57343523  0.73968849  0.86235254     0.03100
C33         C  0.59546222  0.76150570  0.87594761    -0.10900
H34         H  0.63425031  0.69587576  0.88753625     0.08700
H35         H  0.55420829  0.68107144  0.84869392     0.06300
H36         H  0.59560540  0.79044364  0.87996477     0.06100
C37         C  0.82269222  0.42139556  0.50265201     0.03200
C38         C  0.84647986  0.40571218  0.51070559    -0.13000
C39         C  0.86544552  0.42333347  0.52512945     0.00700
C40         C  0.86158592  0.45839881  0.53100152    -0.11500
C41         C  0.84209576  0.47735322  0.52233964     0.03100
C42         C  0.82128556  0.45757659  0.50851939    -0.10900
H43         H  0.85003939  0.37976689  0.50562060     0.08700
H44         H  0.87481593  0.47224258  0.54213817     0.06300
H45         H  0.80450435  0.47098440  0.50213417     0.06100
C46         C  0.94792574  0.41819463  0.55203746     0.03200
C47         C  0.92516227  0.43416358  0.54364172    -0.13000
C48         C  0.89047616  0.40640935  0.53377398     0.00700
C49         C  0.87999714  0.36240809  0.53232424    -0.11500
C50         C  0.90546183  0.34743410  0.53962134     0.03100
C51         C  0.93936206  0.37573507  0.54935956    -0.10900
H52         H  0.93436079  0.46806773  0.54516045     0.08700
H53         H  0.85239006  0.33967133  0.52543179     0.06300
H54         H  0.95848058  0.36416904  0.55530403     0.06100
C55         C  0.44291247  0.40631783  0.99938387     0.03200
C56         C  0.48020513  0.44623452  0.00316592    -0.13000
C57         C  0.48166559  0.46866527  0.01664956     0.00700
C58         C  0.44519771  0.45044878  0.02637790    -0.11500
C59         C  0.40533301  0.41348388  0.02196363     0.03100
C60         C  0.40514977  0.39106862  0.00842649    -0.10900
H61         H  0.50833706  0.45957710  0.99563989     0.08700
H62         H  0.44819519  0.46647053  0.03723593     0.06300
H63         H  0.37609470  0.36191828  0.00461788     0.06100
C64         C  0.32468958  0.41381883  0.05152261     0.03200
C65         C  0.28959556  0.37108053  0.04990457    -0.13000
C66         C  0.29082140  0.34277498  0.03897264     0.00700
C67         C  0.32847593  0.35639100  0.03010578    -0.11500
C68         C  0.36463604  0.39913098  0.03142885     0.03100
C69         C  0.36128539  0.42810002  0.04190794    -0.10900
H70         H  0.26113872  0.35970736  0.05719998     0.08700
H71         H  0.32896993  0.33277052  0.02239205     0.06300
H72         H  0.38689681  0.46185953  0.04286906     0.06100
C73         C  0.97741641  0.75960350  0.38105135     0.03200
C74         C  0.01594921  0.76912845  0.37351173    -0.13000
C75         C  0.01589512  0.74367345  0.36098747     0.00700
C76         C  0.97632183  0.70411953  0.35793054    -0.11500
C77         C  0.93705888  0.69355964  0.36571914     0.03100
C78         C  0.93782080  0.72383661  0.37633412    -0.10900
H79         H  0.04591641  0.79589594  0.37802042     0.08700
H80         H  0.97558728  0.68105122  0.34968532     0.06300
H81         H  0.90796557  0.71760537  0.38196130     0.06100
C82         C  0.10227076  0.74612643  0.33313505     0.03200
C83         C  0.06290419  0.73079013  0.34136621    -0.13000
C84         C  0.05731962  0.75861272  0.35173973     0.00700
C85         C  0.09217962  0.80239227  0.35305534    -0.11500
C86         C  0.13236601  0.81664420  0.34582872     0.03100
C87         C  0.13707827  0.78844975  0.33583426    -0.10900
H88         H  0.03729434  0.69746892  0.33944083     0.08700
H89         H  0.08915827  0.82640825  0.35974137     0.06300
H90         H  0.16783180  0.79976503  0.32990760     0.06100
C91         C  0.17974076  0.09155796  0.16328779     0.03200
C92         C  0.20016299  0.07448358  0.17253057    -0.13000
C93         C  0.22812808  0.09928196  0.18471755     0.00700
C94         C  0.23702215  0.14251480  0.18685313    -0.11500
C95         C  0.21607257  0.15941178  0.17798722     0.03100
C96         C  0.18705679  0.13366052  0.16642051    -0.10900
H97         H  0.19335587  0.04161521  0.17027369     0.08700
H98         H  0.26011053  0.16348412  0.19546460     0.06300
H99         H  0.17058911  0.14675124  0.15965777     0.06100
C100        C  0.27766475  0.07987264  0.22067726     0.03200
C101        C  0.25770978  0.09567557  0.21071581    -0.13000
C102        C  0.24716360  0.08023047  0.19546704     0.00700
C103        C  0.25387535  0.04581965  0.19085659    -0.11500
C104        C  0.26880026  0.02616508  0.20133845     0.03100
C105        C  0.28234029  0.04459108  0.21594051    -0.10900
H106        H  0.25080062  0.12026073  0.21499539     0.08700
H107        H  0.24640382  0.03303162  0.17929779     0.06300
H108        H  0.29578092  0.03072038  0.22380516     0.06100
C109        C  0.04544427  0.69017949  0.83241739     0.03200
C110        C  0.00982779  0.65181693  0.83807773    -0.13000
C111        C  0.99135286  0.65173700  0.85227695     0.00700
C112        C  0.01013755  0.68996871  0.86121416    -0.11500
C113        C  0.04481452  0.72950081  0.85548924     0.03100
C114        C  0.06139794  0.72914283  0.84078325    -0.10900
H115        H  0.99616785  0.62203412  0.83133279     0.08700
H116        H  0.99679141  0.68852735  0.87249228     0.06300
H117        H  0.08712465  0.75885530  0.83570873     0.06100
C118        C  0.05915275  0.81528928  0.88547016     0.03200
C119        C  0.10205571  0.84827958  0.88233439    -0.13000
C120        C  0.12639724  0.84280476  0.87080921     0.00700
C121        C  0.10799328  0.80350036  0.86260196    -0.11500
C122        C  0.06412250  0.77073169  0.86481053     0.03100
C123        C  0.03967821  0.77755343  0.87618837    -0.10900
H124        H  0.11704539  0.87791847  0.88917192     0.08700
H125        H  0.12859054  0.79887065  0.85457232     0.06300
H126        H  0.00577945  0.75344401  0.87818342     0.06100
C127        C  0.71424937  0.64805162  0.66860784     0.03200
C128        C  0.66948786  0.63198208  0.67051099    -0.13000
C129        C  0.64613722  0.60150721  0.68195849     0.00700
C130        C  0.66703405  0.58505601  0.69111607    -0.11500
C131        C  0.71224002  0.60083243  0.68965077     0.03100
C132        C  0.73570345  0.63325377  0.67844155    -0.10900
H133        H  0.65275858  0.64351575  0.66313582     0.08700
H134        H  0.64743083  0.55984997  0.69931958     0.06300
H135        H  0.77057595  0.64703255  0.67715703     0.06100
C136        C  0.73557968  0.54522853  0.72305379     0.03200
C137        C  0.71699710  0.56481824  0.71419346    -0.13000
C138        C  0.73426305  0.58296918  0.69963471     0.00700
C139        C  0.77186017  0.58238832  0.69453398    -0.11500
C140        C  0.79198351  0.56507535  0.70379263     0.03100
C141        C  0.77346817  0.54638361  0.71792504    -0.10900
H142        H  0.68878505  0.56516041  0.71874792     0.08700
H143        H  0.78552378  0.59476485  0.68332611     0.06300
H144        H  0.78830334  0.53196124  0.72488792     0.06100
C145        C  0.37537757  0.35607646  0.49993239     0.03200
C146        C  0.39163075  0.39521995  0.50819522    -0.13000
C147        C  0.37188523  0.39667863  0.52210432     0.00700
C148        C  0.33522027  0.35795017  0.52733908    -0.11500
C149        C  0.31704139  0.31970043  0.51849092     0.03100
C150        C  0.33755476  0.31880785  0.50491842    -0.10900
H151        H  0.41944803  0.42418944  0.50357742     0.08700
H152        H  0.31993448  0.35717134  0.53816077     0.06300
H153        H  0.32388977  0.28906464  0.49814557     0.06100
C154        C  0.38127996  0.48202320  0.55123075     0.03200
C155        C  0.36305023  0.44567858  0.54130965    -0.13000
C156        C  0.38979184  0.43795910  0.53125422     0.00700
C157        C  0.43440639  0.46958288  0.53038463    -0.11500
C158        C  0.45166727  0.50810176  0.53896168     0.03100
C159        C  0.42552997  0.51358337  0.54970519    -0.10900
H160        H  0.32832938  0.42277226  0.54200626     0.08700
H161        H  0.45636038  0.46485342  0.52308056     0.06300
H162        H  0.43994098  0.54223867  0.55704236     0.06100
C163        C  0.37386041  0.96002335  0.99616493     0.03200
C164        C  0.39570353  0.94620530  0.00621291    -0.13000
C165        C  0.37372179  0.91840065  0.01882580     0.00700
C166        C  0.32960176  0.90619362  0.02122876    -0.11500
C167        C  0.30884858  0.92238226  0.01191324     0.03100
C168        C  0.33039394  0.94788279  0.99914714    -0.10900
H169        H  0.42994851  0.95810845  0.00415911     0.08700
H170        H  0.31076511  0.88479593  0.03048703     0.06300
H171        H  0.31380761  0.95974670  0.99184757     0.06100
C172        C  0.40006076  0.87118277  0.05426617     0.03200
C173        C  0.37994427  0.88735709  0.04452267    -0.13000
C174        C  0.39655482  0.90301500  0.02961733     0.00700
C175        C  0.43487815  0.90300826  0.02507401    -0.11500
C176        C  0.45676742  0.88963005  0.03517131     0.03100
C177        C  0.43902423  0.87353503  0.04967492    -0.10900
H178        H  0.35112750  0.88691270  0.04878395     0.08700
H179        H  0.44809204  0.91296052  0.01367418     0.06300
H180        H  0.45508069  0.86181366  0.05729597     0.06100
C181        C  0.05374314  0.18868990  0.38427348     0.03200
C182        C  0.03330247  0.20435219  0.37441755    -0.13000
C183        C  0.05161683  0.22274764  0.35995127     0.00700
C184        C  0.09214690  0.22650038  0.35602614    -0.11500
C185        C  0.11404601  0.21369379  0.36628927     0.03100
C186        C  0.09414814  0.19377331  0.38011642    -0.10900
H187        H  0.00352375  0.20246880  0.37837437     0.08700
H188        H  0.10738227  0.23929109  0.34506805     0.06300
H189        H  0.11064397  0.18277584  0.38783978     0.06100
C190        C  0.03191643  0.28445139  0.32761640     0.03200
C191        C  0.98793404  0.27130409  0.32989436    -0.13000
C192        C  0.96423914  0.24202712  0.34164490     0.00700
C193        C  0.98431649  0.22462501  0.35082423    -0.11500
C194        C  0.02923269  0.23875206  0.34923014     0.03100
C195        C  0.05265559  0.26924951  0.33748045    -0.10900
H196        H  0.97237423  0.28450025  0.32270108     0.08700
H197        H  0.96441960  0.20074585  0.35934528     0.06300
H198        H  0.08726115  0.28226550  0.33591072     0.06100
C199        C  0.72226176  0.15007672  0.21946620     0.03200
C200        C  0.70591024  0.11431349  0.20941972    -0.13000
C201        C  0.73388439  0.10827869  0.19944009     0.00700
C202        C  0.77876819  0.14034789  0.19950995    -0.11500
C203        C  0.79477196  0.17900489  0.20822750     0.03100
C204        C  0.76606185  0.18334862  0.21823761    -0.10900
H205        H  0.67129698  0.09106459  0.20984125     0.08700
H206        H  0.80172793  0.13587056  0.19270179     0.06300
H207        H  0.77800003  0.21222141  0.22538086     0.06100
C208        C  0.72203443  0.03130285  0.16633424     0.03200
C209        C  0.68293283  0.99373487  0.17024457    -0.13000
C210        C  0.65959992  0.99319142  0.18322997     0.00700
C211        C  0.67691417  0.02991887  0.19287135    -0.11500
C212        C  0.71643225  0.06851955  0.18924970     0.03100
C213        C  0.73844137  0.06875657  0.17564887    -0.10900
H214        H  0.67001351  0.96508867  0.16291596     0.08700
H215        H  0.65897625  0.02764862  0.20317044     0.06300
H216        H  0.76790165  0.09785899  0.17203152     0.06100
C217        C  0.54019097  0.70665148  0.32243507     0.03200
C218        C  0.54108877  0.66923111  0.32695892    -0.13000
C219        C  0.56373221  0.66968129  0.34012933     0.00700
C220        C  0.58349886  0.70734495  0.34938120    -0.11500
C221        C  0.58256832  0.74555804  0.34520251     0.03100
C222        C  0.56285650  0.74518247  0.33108414    -0.10900
H223        H  0.52324328  0.63925509  0.32038953     0.08700
H224        H  0.59771474  0.70542515  0.36009597     0.06300
H225        H  0.56288747  0.77394875  0.32695275     0.06100
C226        C  0.63535019  0.81979153  0.38004852     0.03200
C227        C  0.61875778  0.84825456  0.37877042    -0.13000
C228        C  0.59422851  0.84663743  0.36597089     0.00700
C229        C  0.58237223  0.81334374  0.35507125    -0.11500
C230        C  0.59806836  0.78363936  0.35611320     0.03100
C231        C  0.62680418  0.78932494  0.36829227    -0.10900
H232        H  0.62595378  0.87265224  0.38756648     0.08700
H233        H  0.56077649  0.81120345  0.34594811     0.06300
H234        H  0.64224008  0.76970684  0.36898111     0.06100
C235        C  0.28976457  0.14889298  0.71584218     0.03200
C236        C  0.28708022  0.18543364  0.71145770    -0.13000
C237        C  0.26778034  0.18586427  0.69755718     0.00700
C238        C  0.25252098  0.15001207  0.68758437    -0.11500
C239        C  0.25307369  0.11175060  0.69185783     0.03100
C240        C  0.27137070  0.11164921  0.70632543    -0.10900
H241        H  0.30015759  0.21382171  0.71891559     0.08700
H242        H  0.24023604  0.15269808  0.67655059     0.06300
H243        H  0.27173223  0.08306470  0.71042409     0.06100
C244        C  0.18600957  0.03007305  0.65999341     0.03200
C245        C  0.19715654  0.99770068  0.66212249    -0.13000
C246        C  0.22580122  0.00162228  0.67388213     0.00700
C247        C  0.24545109  0.03945578  0.68303874    -0.11500
C248        C  0.23431774  0.07242796  0.68135138     0.03100
C249        C  0.20372184  0.06657161  0.66978133    -0.10900
H250        H  0.18187105  0.96842020  0.65509555     0.08700
H251        H  0.26839536  0.04188376  0.69168864     0.06300
H252        H  0.19213364  0.08936001  0.66843994     0.06100
C253        C  0.44060370  0.97052310  0.50264072     0.03200
C254        C  0.40198125  0.94735677  0.51116640    -0.13000
C255        C  0.40190725  0.92834078  0.52540067     0.00700
C256        C  0.44173985  0.93277665  0.53073673    -0.11500
C257        C  0.47985101  0.95385526  0.52184111     0.03100
C258        C  0.47927032  0.97350637  0.50802151    -0.10900
H259        H  0.37207138  0.94354853  0.50638849     0.08700
H260        H  0.44348133  0.91902742  0.54159118     0.06300
H261        H  0.50866785  0.98978970  0.50112270     0.06100
C262        C  0.31766635  0.84613689  0.55332017     0.03200
C263        C  0.28298357  0.85399739  0.55146972    -0.13000
C264        C  0.28630103  0.88593108  0.54122042     0.00700
C265        C  0.32537594  0.91089429  0.53300067    -0.11500
C266        C  0.36028326  0.90242768  0.53428705     0.03100
C267        C  0.35512328  0.86880725  0.54425432    -0.10900
H268        H  0.25360921  0.83578620  0.55826300     0.08700
H269        H  0.32819350  0.93691799  0.52573042     0.06300
H270        H  0.38037904  0.86035195  0.54537455     0.06100
C271        C  0.66597688  0.53684897  0.22555296     0.03200
C272        C  0.63006257  0.53993986  0.22074121    -0.13000
C273        C  0.63151947  0.56105110  0.20704449     0.00700
C274        C  0.66921477  0.57851671  0.19797168    -0.11500
C275        C  0.70754683  0.57954592  0.20317915     0.03100
C276        C  0.70509274  0.55828964  0.21722542    -0.10900
H277        H  0.60054817  0.52522955  0.22760442     0.08700
H278        H  0.66780422  0.59138896  0.18691961     0.06300
H279        H  0.73282026  0.55754083  0.22195607     0.06100
C280        C  0.79021178  0.64639654  0.17169826     0.03200
C281        C  0.75410235  0.63010243  0.18158049    -0.13000
C282        C  0.74896220  0.60154547  0.19380591     0.00700
C283        C  0.78368482  0.59370848  0.19669964    -0.11500
C284        C  0.82108556  0.61212363  0.18747719     0.03100
C285        C  0.82357092  0.63722237  0.17474458    -0.10900
H286        H  0.73026627  0.63988669  0.17937407     0.08700
H287        H  0.78233571  0.57273328  0.20588115     0.06300
H288        H  0.85173185  0.64987945  0.16724039     0.06100
C289        C  0.80244958  0.33391694  0.00617766     0.03200
C290        C  0.81941793  0.36909688  0.01654465    -0.13000
C291        C  0.85211754  0.37551365  0.02731065     0.00700
C292        C  0.86532203  0.34397877  0.02787187    -0.11500
C293        C  0.84556721  0.30655302  0.01854117     0.03100
C294        C  0.81476897  0.30214389  0.00753654    -0.10900
H295        H  0.80708792  0.39141214  0.01582871     0.08700
H296        H  0.89111926  0.34792814  0.03549641     0.06300
H297        H  0.80057433  0.27406209  0.99992995     0.06100
C298        C  0.92068099  0.45618112  0.05929468     0.03200
C299        C  0.89668785  0.41709222  0.05090058    -0.13000
C300        C  0.87382468  0.41569243  0.03733764     0.00700
C301        C  0.87321507  0.45387635  0.03312116    -0.11500
C302        C  0.89479563  0.49211830  0.04189418     0.03100
C303        C  0.91936391  0.49343779  0.05467276    -0.10900
H304        H  0.89645303  0.38822937  0.05505245     0.08700
H305        H  0.85664606  0.45494444  0.02288537     0.06300
H306        H  0.93724302  0.52358884  0.06114141     0.06100
C307        C  0.11281557  0.29395463  0.83377737     0.03200
C308        C  0.07672244  0.27609332  0.84366097    -0.13000
C309        C  0.07785513  0.25737985  0.85788738     0.00700
C310        C  0.11680724  0.25742091  0.86170569    -0.11500
C311        C  0.15172638  0.27253281  0.85134262     0.03100
C312        C  0.14955900  0.29098306  0.83745982    -0.10900
H313        H  0.04826744  0.27714959  0.83991057     0.08700
H314        H  0.12093491  0.24587080  0.87266676     0.06300
H315        H  0.17685281  0.30361960  0.82955558     0.06100
C316        C  0.00157487  0.19398231  0.89125810     0.03200
C317        C  0.96805911  0.20349670  0.88934705    -0.13000
C318        C  0.96822898  0.22838577  0.87687664     0.00700
C319        C  0.00413014  0.24637008  0.86682639    -0.11500
C320        C  0.03913487  0.23809625  0.86864880     0.03100
C321        C  0.03623901  0.21031925  0.88081619    -0.10900
H322        H  0.94098016  0.19028798  0.89735027     0.08700
H323        H  0.00382588  0.26659645  0.85766260     0.06300
H324        H  0.06012660  0.20024468  0.88231915     0.06100
O325        O  0.56495709  0.17762845  0.81703041    -0.80100
O326        O  0.67145890  0.37332684  0.87188486    -0.81700
O327        O  0.64162681  0.33350984  0.82108728    -0.78700
O328        O  0.69030088  0.26629993  0.84915768    -0.77100
O329        O  0.66536211  0.22367522  0.87067897    -0.78900
O330        O  0.57732830  0.33292607  0.81917500    -0.79800
O331        O  0.69332707  0.35201055  0.85047196    -0.81100
O332        O  0.63144010  0.24081378  0.81809521    -0.81400
Eu333      Eu  0.63325519  0.28203927  0.84137392     2.39200
O334        O  0.63015348  0.27902955  0.86843736    -0.88900
O335        O  0.56237995  0.25004724  0.83119688    -0.92500
C336        C  0.60336837  0.20416087  0.81177518     1.02200
C337        C  0.69974927  0.37894395  0.86148468     1.02000
C338        C  0.61698935  0.34628683  0.81487595     1.01900
C339        C  0.69487633  0.24543331  0.86042542     0.99800
H340        H  0.61618959  0.35024572  0.84748725     0.29500
O341        O  0.59938074  0.32005263  0.85063030    -1.01300
H342        H  0.60818938  0.19418039  0.84548118     0.29600
O343        O  0.59331725  0.20888376  0.84925827    -1.03800
O344        O  0.54940635  0.31538773  0.89897244    -0.81100
O345        O  0.44753085  0.11760373  0.84560467    -0.80600
O346        O  0.54806720  0.36254788  0.84824191    -0.79000
O347        O  0.62461221  0.24229119  0.90046051    -0.82400
O348        O  0.57495268  0.13380724  0.86750444    -0.80200
O349        O  0.48582380  0.24846992  0.81756974    -0.78900
O350        O  0.42940485  0.23057333  0.86686601    -0.80400
O351        O  0.47783472  0.16318039  0.89612533    -0.82300
O352        O  0.45662274  0.27834843  0.84676271    -0.79100
O353        O  0.53997039  0.15842355  0.89673152    -0.81700
O354        O  0.58699377  0.37923992  0.87065324    -0.77500
O355        O  0.48394086  0.18304215  0.81643021    -0.77500
O356        O  0.53885755  0.11863579  0.84486576    -0.77200
O357        O  0.63260031  0.31017298  0.90073391    -0.80700
O358        O  0.48250714  0.25351302  0.89715107    -0.80100
O359        O  0.42607698  0.13920862  0.86701934    -0.78400
Eu360      Eu  0.59580412  0.31679228  0.87763356     2.39800
Eu361      Eu  0.52200285  0.17667630  0.83908491     2.39600
Eu362      Eu  0.52866348  0.28835256  0.84022297     2.38400
Eu363      Eu  0.58945652  0.20568617  0.87627053     2.39900
Eu364      Eu  0.48429171  0.21166827  0.87486329     2.39800
O365        O  0.51844368  0.17343960  0.86600151    -0.92800
O366        O  0.52490669  0.28527419  0.86721026    -0.91700
C367        C  0.51003696  0.28977016  0.90375535     1.02300
C368        C  0.41973966  0.11154081  0.85629244     1.01100
C369        C  0.56903530  0.38845095  0.85949425     1.00500
C370        C  0.63696388  0.27946008  0.90696164     1.02500
C371        C  0.55819391  0.10961151  0.85555511     1.01400
C372        C  0.47434465  0.21129812  0.81117710     1.00200
C373        C  0.42670211  0.25554744  0.85669755     1.00300
C374        C  0.50185086  0.14878275  0.90181991     1.02900
H375        H  0.45822131  0.20128624  0.84374384     0.30300
O376        O  0.48743493  0.21461256  0.84791028    -1.05000
H377        H  0.55246339  0.24148035  0.89615813     0.32300
O378        O  0.55486722  0.24333972  0.88512762    -1.07500
O379        O  0.80985214  0.83425280  0.98706673    -0.80100
O380        O  0.90170168  0.03663623  0.03845756    -0.81700
O381        O  0.77293614  0.92356206  0.01674169    -0.78700
O382        O  0.89167925  0.98756184  0.98867117    -0.77100
O383        O  0.95869739  0.99293260  0.99005170    -0.78900
O384        O  0.75089909  0.87892995  0.03779741    -0.79800
O385        O  0.86022984  0.01368083  0.01664403    -0.81100
O386        O  0.80402285  0.89504461  0.98789198    -0.81400
Eu387      Eu  0.84686809  0.94055666  0.00980418     2.39200
O388        O  0.91856650  0.97908146  0.01937768    -0.88900
O389        O  0.81234459  0.86817036  0.01879264    -0.92500
C390        C  0.79622634  0.85891954  0.98150170     1.02200
C391        C  0.88060634  0.04192920  0.02737637     1.02000
C392        C  0.74482032  0.90065197  0.02714889     1.01900
C393        C  0.93126834  0.00247851  0.98400756     0.99800
H394        H  0.82947941  0.95447935  0.04015051     0.29500
O395        O  0.84527813  0.94035064  0.03675087    -1.01300
H396        H  0.88691655  0.90819905  0.98992196     0.29600
O397        O  0.88598312  0.90748663  0.00098962    -1.03800
O398        O  0.96100098  0.98061513  0.06817446    -0.81100
O399        O  0.86614144  0.77662926  0.01635298    -0.80600
O400        O  0.80621860  0.91333740  0.06634807    -0.79000
O401        O  0.01553078  0.01840917  0.01930032    -0.82400
O402        O  0.96087108  0.90475973  0.98863248    -0.80200
O403        O  0.75451021  0.79402350  0.03876369    -0.78900
O404        O  0.88004706  0.82845054  0.06813849    -0.80400
O405        O  0.99654479  0.89056597  0.04052682    -0.82300
O406        O  0.81480148  0.82726738  0.06844980    -0.79100
O407        O  0.01494116  0.93005766  0.01860756    -0.81700
O408        O  0.87073394  0.97719573  0.06756919    -0.77500
O409        O  0.77736740  0.77536669  0.01690928    -0.77500
O410        O  0.89833861  0.83779341  0.98829799    -0.77200
O411        O  0.98940443  0.03944610  0.03954419    -0.80700
O412        O  0.96252196  0.91677512  0.06862245    -0.80100
O413        O  0.90820673  0.79862169  0.03807936    -0.78400
Eu414      Eu  0.91691764  0.97865254  0.04626546     2.39800
Eu415      Eu  0.85113662  0.83484060  0.00974449     2.39600
Eu416      Eu  0.81134382  0.86805420  0.04587449     2.38400
Eu417      Eu  0.95752767  0.94558968  0.01085299     2.39900
Eu418      Eu  0.92152066  0.87191964  0.04623362     2.39800
O419        O  0.92310107  0.87266811  0.01928354    -0.92800
O420        O  0.88322596  0.90614264  0.05525515    -0.91700
C421        C  0.97294994  0.95486227  0.07403745     1.02300
C422        C  0.88731328  0.77073301  0.02719882     1.01100
C423        C  0.83134486  0.95145150  0.07221264     1.00500
C424        C  0.01933513  0.04609261  0.02972343     1.02500
C425        C  0.93598669  0.86644016  0.98283965     1.01400
C426        C  0.74946973  0.76749414  0.02776549     1.00200
C427        C  0.84244699  0.81704967  0.07396257     1.00300
C428        C  0.02371402  0.91179043  0.02972506     1.02900
H429        H  0.83536081  0.80410354  0.04044672     0.30300
O430        O  0.84956272  0.83390311  0.03681836    -1.05000
H431        H  0.98527028  0.96047846  0.04166993     0.32300
O432        O  0.95579556  0.94480441  0.03772434    -1.07500
O433        O  0.62757599  0.31738134  0.40162920    -0.80100
O434        O  0.52739542  0.11246688  0.35133012    -0.81700
O435        O  0.54306173  0.16172687  0.40021817    -0.78700
O436        O  0.65952832  0.22415842  0.37102903    -0.77100
O437        O  0.67594644  0.26248292  0.34871622    -0.78900
O438        O  0.47886324  0.16196702  0.40161739    -0.79800
O439        O  0.57433645  0.13711255  0.37169657    -0.81100
O440        O  0.62964343  0.25371772  0.40152861    -0.81400
Eu441      Eu  0.58693038  0.20970268  0.37921001     2.39200
O442        O  0.58506626  0.20879945  0.35226914    -0.88900
O443        O  0.54855336  0.24318412  0.38862199    -0.92500
C444        C  0.63948833  0.29128715  0.40727914     1.02200
C445        C  0.55134178  0.10796206  0.36150613     1.02000
C446        C  0.50570195  0.14983279  0.40642395     1.01900
C447        C  0.68410947  0.24206643  0.35923527     0.99800
H448        H  0.49974248  0.14147356  0.37411898     0.29500
O449        O  0.51392310  0.17125243  0.37048027    -1.01300
H450        H  0.65164322  0.29836607  0.37369694     0.29600
O451        O  0.62164546  0.28247920  0.37024741    -1.03800
O452        O  0.46613643  0.16965106  0.32225016    -0.81100
O453        O  0.56501290  0.37308465  0.37312169    -0.80600
O454        O  0.41810046  0.13069611  0.37232983    -0.79000
O455        O  0.61817462  0.23660766  0.32083494    -0.82400
O456        O  0.67391342  0.35785357  0.34918659    -0.80200
O457        O  0.47318020  0.24813851  0.40135469    -0.78900
O458        O  0.44051596  0.26749628  0.35242908    -0.80400
O459        O  0.55441730  0.32447884  0.32247316    -0.82300
O460        O  0.41622268  0.21815164  0.37188955    -0.79100
O461        O  0.61669720  0.32098823  0.32068688    -0.81700
O462        O  0.43927473  0.11121921  0.35035405    -0.77500
O463        O  0.53801041  0.31262875  0.40210162    -0.77500
O464        O  0.65123812  0.37838913  0.37068248    -0.77200
O465        O  0.55656740  0.16963605  0.32189197    -0.80700
O466        O  0.46329105  0.23295315  0.32296205    -0.80100
O467        O  0.52799465  0.35319332  0.35051043    -0.78400
Eu468      Eu  0.51241763  0.17060758  0.34353388     2.39800
Eu469      Eu  0.58269923  0.31579983  0.37983716     2.39600
Eu470      Eu  0.47575545  0.20494633  0.37974833     2.38400
Eu471      Eu  0.61930439  0.28075439  0.34307454     2.39900
Eu472      Eu  0.51077142  0.27851429  0.34400038     2.39800
O473        O  0.58259658  0.31519146  0.35289669    -0.92800
O474        O  0.47553556  0.20570593  0.35279309    -0.91700
C475        C  0.45273700  0.19522606  0.31724831     1.02300
C476        C  0.54649689  0.38042687  0.36166240     1.01100
C477        C  0.41177270  0.10387598  0.36123544     1.00500
C478        C  0.59326587  0.19734685  0.31568960     1.02500
C479        C  0.67767436  0.38618226  0.35938338     1.01400
C480        C  0.49949474  0.28577483  0.40735816     1.00200
C481        C  0.41145162  0.24323780  0.36228217     1.00300
C482        C  0.59084426  0.33415615  0.31592633     1.02900
H483        H  0.49526576  0.29219926  0.37480298     0.30300
O484        O  0.51037264  0.27777647  0.37098428    -1.05000
H485        H  0.54584923  0.24264269  0.32323085     0.32300
O486        O  0.54667080  0.24289878  0.33430191    -1.07500
O487        O  0.34872275  0.68675214  0.68485672    -0.80100
O488        O  0.14226766  0.58279737  0.73401778    -0.81700
O489        O  0.23441527  0.70776605  0.70432570    -0.78700
O490        O  0.29175308  0.65276795  0.73461842    -0.77100
O491        O  0.29643431  0.59054338  0.73476204    -0.78900
O492        O  0.19512253  0.68610172  0.68232055    -0.79800
O493        O  0.20511650  0.64942774  0.73366260    -0.81100
O494        O  0.32474452  0.70875991  0.70558396    -0.81400
Eu495      Eu  0.25021171  0.65031793  0.71203542     2.39200
O496        O  0.21731473  0.57830785  0.72151482    -0.88900
O497        O  0.25093532  0.65060743  0.68506646    -0.92500
C498        C  0.35411023  0.71395122  0.69569052     1.02200
C499        C  0.16746814  0.62168616  0.73929407     1.02000
C500        C  0.21490409  0.71441227  0.69308240     1.01900
C501        C  0.30486035  0.62791570  0.74038897     0.99800
H502        H  0.16220119  0.62522890  0.70680720     0.29500
O503        O  0.17788095  0.61113914  0.70322924    -1.01300
H504        H  0.31857062  0.63148921  0.70716613     0.29600
O505        O  0.28893793  0.61623268  0.70337599    -1.03800
O506        O  0.08741503  0.46515490  0.70603474    -0.81100
O507        O  0.28816250  0.57239154  0.65418590    -0.80600
O508        O  0.10497030  0.59445311  0.68374431    -0.79000
O509        O  0.21154426  0.49536036  0.73331884    -0.82400
O510        O  0.32891354  0.55993317  0.70467940    -0.80200
O511        O  0.22126403  0.65256890  0.65365092    -0.78900
O512        O  0.13969882  0.50394198  0.65409316    -0.80400
O513        O  0.20179807  0.44951946  0.68265093    -0.82300
O514        O  0.13455210  0.56558543  0.65452961    -0.79100
O515        O  0.24663931  0.47394878  0.70365123    -0.81700
O516        O  0.08387034  0.54879414  0.70450104    -0.77500
O517        O  0.28867581  0.65899638  0.65460130    -0.77500
O518        O  0.34305006  0.59476991  0.68173728    -0.77200
O519        O  0.14768366  0.49521286  0.73460789    -0.80700
O520        O  0.10908510  0.44538153  0.68414697    -0.80100
O521        O  0.22519155  0.50588644  0.65448330    -0.78400
Eu522      Eu  0.14492251  0.53895606  0.71270315     2.39800
Eu523      Eu  0.28827497  0.61533185  0.67639452     2.39600
Eu524      Eu  0.17844107  0.61118791  0.67622113     2.38400
Eu525      Eu  0.25545635  0.54417388  0.71248551     2.39900
Eu526      Eu  0.18179715  0.50474659  0.67657094     2.39800
O527        O  0.25397560  0.54354000  0.68559032    -0.92800
O528        O  0.14411984  0.53897710  0.68564971    -0.91700
C529        C  0.08192981  0.43827727  0.69513927     1.02300
C530        C  0.26221637  0.53403777  0.64859878     1.01100
C531        C  0.07710634  0.57069099  0.69410060     1.00500
C532        C  0.17411412  0.48268388  0.73952935     1.02500
C533        C  0.35260441  0.57648890  0.69257849     1.01400
C534        C  0.26005991  0.66630908  0.64830120     1.00200
C535        C  0.12661293  0.52902311  0.64843434     1.00300
C536        C  0.22636840  0.44604304  0.69278761     1.02900
H537        H  0.21605097  0.57660224  0.65634796     0.30300
O538        O  0.21607443  0.57680347  0.66741548    -1.05000
H539        H  0.16908539  0.47494830  0.70714277     0.32300
O540        O  0.18283515  0.50476765  0.70356343    -1.07500
O541        O  0.22929852  0.51535846  0.15198446    -0.80100
O542        O  0.33995929  0.71293507  0.20483844    -0.81700
O543        O  0.30074493  0.66914968  0.15378900    -0.78700
O544        O  0.35689814  0.60631432  0.18265353    -0.77100
O545        O  0.33316759  0.56083513  0.20346110    -0.78900
O546        O  0.23899979  0.67359065  0.15490811    -0.79800
O547        O  0.35849240  0.69304266  0.18243792    -0.81100
O548        O  0.29625297  0.57775446  0.15219097    -0.81400
Eu549      Eu  0.29835328  0.62075202  0.17474680     2.39200
O550        O  0.29765563  0.61825215  0.20171823    -0.88900
O551        O  0.22562607  0.58668565  0.16589927    -0.92500
C552        C  0.26750531  0.54090882  0.14623622     1.02200
C553        C  0.36664417  0.71955808  0.19377523     1.02000
C554        C  0.27682744  0.68498393  0.14915902     1.01900
C555        C  0.36206069  0.58390769  0.19329459     0.99800
H556        H  0.28024801  0.68778374  0.18117512     0.29500
O557        O  0.26417494  0.65776236  0.18453795    -1.01300
H558        H  0.27516929  0.53310564  0.17962294     0.29600
O559        O  0.26082854  0.54804541  0.18367961    -1.03800
O560        O  0.22674737  0.65834989  0.23478410    -0.81100
O561        O  0.11636711  0.45490400  0.18450777    -0.80600
O562        O  0.21162467  0.69988087  0.18286392    -0.79000
O563        O  0.30722731  0.59000258  0.23239694    -0.82400
O564        O  0.24485218  0.47263590  0.20208594    -0.80200
O565        O  0.14591077  0.57918824  0.15330022    -0.78900
O566        O  0.09769375  0.56701888  0.20490394    -0.80400
O567        O  0.15389357  0.50686967  0.23301059    -0.82300
O568        O  0.11988276  0.61235388  0.18409133    -0.79100
O569        O  0.21203202  0.49670292  0.23138778    -0.81700
O570        O  0.25443372  0.71816209  0.20444040    -0.77500
O571        O  0.14294850  0.51304802  0.15368882    -0.77500
O572        O  0.20568356  0.45657218  0.17995101    -0.77200
O573        O  0.31196555  0.65697648  0.23209479    -0.80700
O574        O  0.15937936  0.59824473  0.23389410    -0.80100
O575        O  0.09732623  0.48000499  0.20569530    -0.78400
Eu576      Eu  0.26537468  0.65714050  0.21149951     2.39800
Eu577      Eu  0.18813589  0.51413978  0.17500541     2.39600
Eu578      Eu  0.19167807  0.62461788  0.17542063     2.38400
Eu579      Eu  0.26026100  0.54571340  0.21079746     2.39900
Eu580      Eu  0.15646577  0.55319225  0.21170480     2.39800
O581        O  0.18828685  0.51365459  0.20194247    -0.92800
O582        O  0.19305889  0.62526931  0.20258934    -0.91700
C583        C  0.18838707  0.63387626  0.24045893     1.02300
C584        C  0.09027945  0.45050661  0.19565544     1.01100
C585        C  0.23479498  0.72664647  0.19367249     1.00500
C586        C  0.32204513  0.62936851  0.23750800     1.02500
C587        C  0.22581974  0.44773790  0.19037161     1.01400
C588        C  0.13239834  0.54004104  0.14801536     1.00200
C589        C  0.09192018  0.58978540  0.19465863     1.00300
C590        C  0.17542475  0.48850935  0.23751073     1.02900
H591        H  0.12449997  0.53775330  0.18119133     0.30300
O592        O  0.15451884  0.55229851  0.18461674    -1.05000
H593        H  0.22867229  0.58452293  0.23180843     0.32300
O594        O  0.22825771  0.58499835  0.22073999    -1.07500
O595        O  0.87908561  0.99328577  0.56527996    -0.80100
O596        O  0.76899097  0.78664058  0.51621737    -0.81700
O597        O  0.75372847  0.90228837  0.53549193    -0.78700
O598        O  0.80819898  0.84422881  0.56697394    -0.77100
O599        O  0.86977344  0.83865287  0.56757099    -0.78900
O600        O  0.78055268  0.94880162  0.51518708    -0.79800
O601        O  0.75162209  0.80984508  0.53809800    -0.81100
O602        O  0.81078127  0.93315833  0.56385422    -0.81400
Eu603      Eu  0.80983144  0.88466090  0.54370236     2.39200
O604        O  0.84251305  0.84444398  0.53581571    -0.88900
O605        O  0.85060389  0.95612071  0.53425771    -0.92500
C606        C  0.83926923  0.96979410  0.56990943     1.02200
C607        C  0.74329475  0.78113202  0.52754669     1.02000
C608        C  0.75110197  0.92772696  0.52547580     1.01900
C609        C  0.83302113  0.83142304  0.57316382     0.99800
H610        H  0.78042893  0.86916907  0.51288166     0.29500
O611        O  0.81005720  0.88307374  0.51668537    -1.01300
H612        H  0.88149913  0.91918517  0.56455386     0.29600
O613        O  0.88160975  0.91804102  0.55349182    -1.03800
O614        O  0.88659210  0.83770036  0.48772762    -0.81100
O615        O  0.99575083  0.04544228  0.53611587    -0.80600
O616        O  0.80707792  0.91028733  0.48523358    -0.79000
O617        O  0.89415723  0.80224786  0.53939069    -0.82400
O618        O  0.96106068  0.92272790  0.56665559    -0.80200
O619        O  0.86723974  0.02965922  0.51510207    -0.78900
O620        O  0.96113165  0.99565928  0.48716071    -0.80400
O621        O  0.01046063  0.92879021  0.51681226    -0.82300
O622        O  0.89884988  0.99990333  0.48598661    -0.79100
O623        O  0.98551987  0.88732420  0.53858582    -0.81700
O624        O  0.80376621  0.84386563  0.48617953    -0.77500
O625        O  0.90925798  0.04887557  0.53683788    -0.77500
O626        O  0.96775211  0.99019829  0.56555265    -0.77200
O627        O  0.85211833  0.78162077  0.51768370    -0.80700
O628        O  0.95005645  0.90259208  0.48648903    -0.80100
O629        O  0.01703789  0.01903023  0.51599057    -0.78400
Eu630      Eu  0.84352065  0.84288602  0.50892976     2.39800
Eu631      Eu  0.92217058  0.98945940  0.54392634     2.39600
Eu632      Eu  0.85064272  0.95551389  0.50732404     2.38400
Eu633      Eu  0.91434813  0.87799690  0.54526502     2.39900
Eu634      Eu  0.95517125  0.94784889  0.50868760     2.39800
O635        O  0.95483773  0.94949458  0.53566388    -0.92800
O636        O  0.88319763  0.91480039  0.49938959    -0.91700
C637        C  0.92358184  0.86382759  0.48137654     1.02300
C638        C  0.02378713  0.04855724  0.52603848     1.01100
C639        C  0.79519657  0.87166589  0.47994213     1.00500
C640        C  0.87144066  0.77428141  0.52886696     1.02500
C641        C  0.97667644  0.96226875  0.57159076     1.01400
C642        C  0.88864309  0.05632517  0.52617499     1.00200
C643        C  0.93726600  0.00978956  0.48110159     1.00300
C644        C  0.01422856  0.90695781  0.52800392     1.02900
H645        H  0.93907551  0.01795943  0.51322025     0.30300
O646        O  0.92258844  0.98827816  0.51692212    -1.05000
H647        H  0.92885798  0.85939356  0.51487531     0.32300
O648        O  0.91552990  0.87599800  0.51823756    -1.07500
C649        C  0.99911976  0.16568042  0.90413821     0.01400
C650        C  0.02469800  0.18403167  0.91740920     0.04200
C651        C  0.01727468  0.15792814  0.93048846    -0.11900
C652        C  0.98289584  0.11405470  0.93053096     0.23500
C653        C  0.95835719  0.09547995  0.91706933    -0.12400
C654        C  0.96807196  0.12072906  0.90371011     0.04900
C655        C  0.97216644  0.08734716  0.94467318     0.27300
C656        C  0.98254198  0.05389796  0.94573752    -0.13100
C657        C  0.96825830  0.02548623  0.95839253     0.05400
C658        C  0.94620071  0.03235508  0.97063996    -0.09100
C659        C  0.93825439  0.06770540  0.96994123     0.06200
C660        C  0.94993859  0.09417472  0.95678516    -0.13500
Br661      Br  0.90989463  0.03611830  0.91709722    -0.05500
Br662      Br  0.06928162  0.24497397  0.91773639     0.00100
Br663      Br  0.97630411  0.97537671  0.95817634     0.00500
Br664      Br  0.93472495  0.13937687  0.95519971    -0.03900
Br665      Br  0.94095928  0.09319258  0.88458548     0.00600
Br666      Br  0.05343931  0.18229496  0.94846207    -0.03200
Br667      Br  0.01642950  0.04710051  0.92976225    -0.04000
Br668      Br  0.91351092  0.08186080  0.98719845    -0.00100
C669        C  0.73758017  0.24759987  0.86203713     0.01400
C670        C  0.76093934  0.26269340  0.87589895     0.04200
C671        C  0.79840938  0.25957885  0.87850219    -0.11900
C672        C  0.81579175  0.24608657  0.86656539     0.23500
C673        C  0.79508450  0.23542392  0.85208085    -0.12400
C674        C  0.75551320  0.23517820  0.84991376     0.04900
C675        C  0.85514056  0.24214585  0.86929111     0.27300
C676        C  0.89685212  0.27974578  0.87087335    -0.13100
C677        C  0.93373319  0.27549313  0.87375995     0.05400
C678        C  0.92958446  0.23362458  0.87403088    -0.09100
C679        C  0.88792296  0.19622251  0.87175545     0.06200
C680        C  0.85073533  0.20039684  0.87012322    -0.13500
Br681      Br  0.82091355  0.22082090  0.83525377    -0.05500
Br682      Br  0.74509252  0.29318962  0.89045776     0.00100
Br683      Br  0.98935580  0.32707230  0.87795158     0.00500
Br684      Br  0.79338116  0.14864275  0.86924344    -0.03900
Br685      Br  0.72610637  0.21751224  0.83037943     0.00600
Br686      Br  0.82486839  0.27246138  0.89860994    -0.03200
Br687      Br  0.90345737  0.33710709  0.86890649    -0.04000
Br688      Br  0.88139959  0.13905166  0.86968001    -0.00100
C689        C  0.16096549  0.45142005  0.75302769     0.01400
C690        C  0.11716499  0.42931993  0.75880644     0.04200
C691        C  0.10572440  0.40096070  0.77154217    -0.11900
C692        C  0.13673843  0.39298135  0.77850097     0.23500
C693        C  0.17941743  0.41300380  0.77272249    -0.12400
C694        C  0.19196864  0.44231677  0.76027730     0.04900
C695        C  0.12563485  0.36587689  0.79263799     0.27300
C696        C  0.13122348  0.38596603  0.80708753    -0.13100
C697        C  0.12570146  0.36199301  0.82057833     0.05400
C698        C  0.11338783  0.31748341  0.81969568    -0.09100
C699        C  0.10561608  0.29675688  0.80530192     0.06200
C700        C  0.11234446  0.32104593  0.79176767    -0.13500
Br701      Br  0.22107173  0.40027352  0.78236423    -0.05500
Br702      Br  0.07060594  0.43525739  0.74965564     0.00100
Br703      Br  0.13715045  0.39063660  0.84028061     0.00500
Br704      Br  0.10514971  0.29351638  0.77205349    -0.03900
Br705      Br  0.25288195  0.46930397  0.75423801     0.00600
Br706      Br  0.04721767  0.37278167  0.77987817    -0.03200
Br707      Br  0.14795471  0.44688578  0.80830897    -0.04000
Br708      Br  0.08618660  0.23517687  0.80427509    -0.00100
C709        C  0.19076393  0.26874158  0.85471487     0.01400
C710        C  0.23223739  0.30682023  0.85586340     0.04200
C711        C  0.27014531  0.30353430  0.85636753    -0.11900
C712        C  0.26672585  0.26213162  0.85660663     0.23500
C713        C  0.22523937  0.22397669  0.85653854    -0.12400
C714        C  0.18730526  0.22720445  0.85530937     0.04900
C715        C  0.30699212  0.25906270  0.85666697     0.27300
C716        C  0.32318087  0.25212582  0.84283258    -0.13100
C717        C  0.36256320  0.25139313  0.84273438     0.05400
C718        C  0.38615566  0.25797972  0.85652015    -0.09100
C719        C  0.37013718  0.26573597  0.87031483     0.06200
C720        C  0.33033517  0.26552435  0.87040603    -0.13500
Br721      Br  0.22072361  0.16739214  0.85776715    -0.05500
Br722      Br  0.23709408  0.36355453  0.85709096     0.00100
Br723      Br  0.38302431  0.24002356  0.82370147     0.00500
Br724      Br  0.30764789  0.27440167  0.88935488    -0.03900
Br725      Br  0.13099008  0.17463792  0.85354736     0.00600
Br726      Br  0.32703153  0.35576559  0.85612118    -0.03200
Br727      Br  0.29125882  0.24387426  0.82398964    -0.04000
Br728      Br  0.40398596  0.27992780  0.88898638    -0.00100
C729        C  0.10184761  0.52408368  0.13464590     0.01400
C730        C  0.11231714  0.54865024  0.12099484     0.04200
C731        C  0.08172336  0.53549803  0.10891477    -0.11900
C732        C  0.04195821  0.49542007  0.10975400     0.23500
C733        C  0.03323039  0.46863901  0.12273979    -0.12400
C734        C  0.06254953  0.48312948  0.13523671     0.04900
C735        C  0.00908986  0.48162037  0.09711809     0.27300
C736        C  0.97130000  0.48479408  0.09911719    -0.13100
C737        C  0.94037149  0.47228428  0.08721908     0.05400
C738        C  0.94827115  0.45944699  0.07278082    -0.09100
C739        C  0.98534079  0.45463968  0.07096857     0.06200
C740        C  0.01518232  0.46497813  0.08319664    -0.13500
Br741      Br  0.98088170  0.41181552  0.12330233    -0.05500
Br742      Br  0.17073794  0.59655328  0.11790843     0.00100
Br743      Br  0.88601970  0.47060529  0.09105186     0.00500
Br744      Br  0.06490919  0.45699276  0.08087337    -0.03900
Br745      Br  0.04813716  0.44618726  0.15306501     0.00600
Br746      Br  0.09402218  0.57279464  0.09129494    -0.03200
Br747      Br  0.96265060  0.50788084  0.11803702    -0.04000
Br748      Br  0.99658211  0.43563816  0.05161449    -0.00100
C749        C  0.89071605  0.53071316  0.03799618     0.01400
C750        C  0.86827321  0.54384135  0.04805054     0.04200
C751        C  0.86834759  0.58303885  0.04548709    -0.11900
C752        C  0.88735291  0.60739799  0.03206146     0.23500
C753        C  0.90652208  0.59226131  0.02128167    -0.12400
C754        C  0.90925404  0.55464118  0.02443324     0.04900
C755        C  0.88757658  0.64909853  0.02951409     0.27300
C756        C  0.84838158  0.64869125  0.02620149    -0.13100
C757        C  0.84776298  0.68821131  0.02589286     0.05400
C758        C  0.88725475  0.72868518  0.02720555    -0.09100
C759        C  0.92689678  0.72872208  0.02853070     0.06200
C760        C  0.92678754  0.68942139  0.03095016    -0.13500
Br761      Br  0.92881263  0.62296684  0.00218049    -0.05500
Br762      Br  0.83444965  0.50647298  0.06472386     0.00100
Br763      Br  0.79239544  0.68609603  0.02436813     0.00500
Br764      Br  0.98005511  0.69120377  0.03702532    -0.03900
Br765      Br  0.93907780  0.53646906  0.01031510     0.00600
Br766      Br  0.84358218  0.60401829  0.06069875    -0.03200
Br767      Br  0.79555871  0.59387248  0.02218064    -0.04000
Br768      Br  0.98126912  0.78145943  0.02469051    -0.00100
C769        C  0.85664393  0.27153578  0.02054054     0.01400
C770        C  0.84743084  0.24870512  0.03458542     0.04200
C771        C  0.85722338  0.21509489  0.03648457    -0.11900
C772        C  0.87319890  0.20182092  0.02405183     0.23500
C773        C  0.88310653  0.22494081  0.01009378    -0.12400
C774        C  0.87570588  0.26030425  0.00844208     0.04900
C775        C  0.87560263  0.16115185  0.02525257     0.27300
C776        C  0.91583942  0.16308651  0.02773543    -0.13100
C777        C  0.91779479  0.12426994  0.02823407     0.05400
C778        C  0.87906528  0.08310416  0.02694914    -0.09100
C779        C  0.83859385  0.08138365  0.02496643     0.06200
C780        C  0.83702226  0.12022621  0.02391464    -0.13500
Br781      Br  0.90599801  0.20748287  0.99314706    -0.05500
Br782      Br  0.81801161  0.26071003  0.05088311     0.00100
Br783      Br  0.97405047  0.12812176  0.02958312     0.00500
Br784      Br  0.78169122  0.11746721  0.02070566    -0.03900
Br785      Br  0.89236994  0.29370030  0.98968137     0.00600
Br786      Br  0.84842856  0.18665965  0.05609418    -0.03200
Br787      Br  0.96806401  0.21907954  0.03068907    -0.04000
Br788      Br  0.78458502  0.02593027  0.02433392    -0.00100
C789        C  0.77337789  0.33101048  0.99333917     0.01400
C790        C  0.73011472  0.29555428  0.99248429     0.04200
C791        C  0.70496557  0.28890413  0.97916755    -0.11900
C792        C  0.72300097  0.31753667  0.96661437     0.23500
C793        C  0.76499477  0.35464430  0.96784397    -0.12400
C794        C  0.79009674  0.36156890  0.98119447     0.04900
C795        C  0.69942547  0.30668404  0.95169543     0.27300
C796        C  0.70299031  0.27769979  0.94158061    -0.13100
C797        C  0.67989143  0.26583200  0.92761167     0.05400
C798        C  0.65688461  0.28713571  0.92271400    -0.09100
C799        C  0.65214055  0.31512384  0.93334208     0.06200
C800        C  0.67302664  0.32435009  0.94776859    -0.13500
Br801      Br  0.78866293  0.39476424  0.95084050    -0.05500
Br802      Br  0.70528637  0.25620034  0.00961367     0.00100
Br803      Br  0.67790076  0.21737936  0.91652222     0.00500
Br804      Br  0.66541778  0.36097706  0.96242263    -0.03900
Br805      Br  0.84828495  0.41173988  0.98234082     0.00600
Br806      Br  0.64613712  0.23993600  0.97785154    -0.03200
Br807      Br  0.74070508  0.25485656  0.94688615    -0.04000
Br808      Br  0.61332098  0.33754051  0.92937193    -0.00100
C809        C  0.85786469  0.60491950  0.19104339     0.01400
C810        C  0.85301020  0.56303431  0.18938394     0.04200
C811        C  0.88922081  0.55734750  0.19154619    -0.11900
C812        C  0.93044610  0.59358506  0.19514260     0.23500
C813        C  0.93457534  0.63480079  0.19780691    -0.12400
C814        C  0.89830428  0.64035447  0.19585223     0.04900
C815        C  0.97000001  0.58924341  0.19520405     0.27300
C816        C  0.99059106  0.59015122  0.20911649    -0.13100
C817        C  0.03129827  0.59215203  0.20899271     0.05400
C818        C  0.04971663  0.58915862  0.19492766    -0.09100
C819        C  0.02677713  0.58418322  0.18110467     0.06200
C820        C  0.98823333  0.58635108  0.18119630    -0.13500
Br821      Br  0.99014126  0.68398240  0.20392369    -0.05500
Br822      Br  0.79726610  0.51371613  0.18360276     0.00100
Br823      Br  0.06240369  0.60190339  0.22814141     0.00500
Br824      Br  0.96089841  0.58635275  0.16202263    -0.03900
Br825      Br  0.90392606  0.69637102  0.20022221     0.00600
Br826      Br  0.88267707  0.50006601  0.18944793    -0.03200
Br827      Br  0.96272419  0.58862920  0.22832895    -0.04000
Br828      Br  0.04576818  0.57098728  0.16207911    -0.00100
C829        C  0.79297267  0.67212767  0.15783609     0.01400
C830        C  0.76161450  0.65311272  0.14597037     0.04200
C831        C  0.76643520  0.67662685  0.13238593    -0.11900
C832        C  0.80418670  0.71772218  0.13009195     0.23500
C833        C  0.83549227  0.73662864  0.14189508    -0.12400
C834        C  0.82873009  0.71487070  0.15595821     0.04900
C835        C  0.81116569  0.74141490  0.11536829     0.27300
C836        C  0.82368950  0.72755168  0.10210788    -0.13100
C837        C  0.83230101  0.75136017  0.08837736     0.05400
C838        C  0.83068557  0.79045062  0.08806980    -0.09100
C839        C  0.82049844  0.80539008  0.10156473     0.06200
C840        C  0.80834798  0.77973082  0.11490213    -0.13500
Br841      Br  0.88843987  0.79198519  0.13868457    -0.05500
Br842      Br  0.71318046  0.59407585  0.14781549     0.00100
Br843      Br  0.84691070  0.73048193  0.07008806     0.00500
Br844      Br  0.78846526  0.79745672  0.13266035    -0.03900
Br845      Br  0.86716022  0.74505876  0.17290506     0.00600
Br846      Br  0.72132759  0.65279477  0.11689553    -0.03200
Br847      Br  0.83064883  0.67685162  0.10288466    -0.04000
Br848      Br  0.82978351  0.86384618  0.10255538    -0.00100
C849        C  0.60397265  0.36275449  0.30211164     0.01400
C850        C  0.64856860  0.39444676  0.29946790     0.04200
C851        C  0.66012146  0.42358800  0.28706644    -0.11900
C852        C  0.62783421  0.42103555  0.27705978     0.23500
C853        C  0.58385870  0.38881690  0.27922443    -0.12400
C854        C  0.57182264  0.35961286  0.29161832     0.04900
C855        C  0.64027882  0.45194044  0.26405477     0.27300
C856        C  0.64317223  0.49278528  0.26614591    -0.13100
C857        C  0.65391828  0.52165106  0.25370820     0.05400
C858        C  0.66133785  0.50955929  0.23908733    -0.09100
C859        C  0.65961151  0.46907323  0.23712116     0.06200
C860        C  0.64898346  0.44030306  0.24959219    -0.13500
Br861      Br  0.54009567  0.38498126  0.26506100    -0.05500
Br862      Br  0.69498603  0.39999926  0.31270027     0.00100
Br863      Br  0.65894538  0.57804006  0.25670461     0.00500
Br864      Br  0.64480314  0.38415075  0.24687054    -0.03900
Br865      Br  0.51121995  0.31417608  0.29334917     0.00600
Br866      Br  0.72042730  0.46784607  0.28374153    -0.03200
Br867      Br  0.63122465  0.50849881  0.28600204    -0.04000
Br868      Br  0.66977517  0.45189421  0.21722880    -0.00100
C869        C  0.59346234  0.56532545  0.20251483     0.01400
C870        C  0.59795364  0.60719948  0.20087815     0.04200
C871        C  0.56071879  0.61103721  0.19860993    -0.11900
C872        C  0.51903750  0.57331930  0.19816247     0.23500
C873        C  0.51447271  0.53165990  0.19959669    -0.12400
C874        C  0.55168192  0.52756929  0.20124465     0.04900
C875        C  0.47976462  0.57751775  0.19668180     0.27300
C876        C  0.46082845  0.58359784  0.20988789    -0.13100
C877        C  0.42429850  0.58884321  0.20857591     0.05400
C878        C  0.40409533  0.58436600  0.19414868    -0.09100
C879        C  0.42293688  0.57755661  0.18089273     0.06200
C880        C  0.46128366  0.57510245  0.18217211    -0.13500
Br881      Br  0.45689624  0.48041979  0.20013954    -0.05500
Br882      Br  0.65445761  0.65974845  0.20242175     0.00100
Br883      Br  0.40420192  0.60464859  0.22663848     0.00500
Br884      Br  0.48807445  0.56696950  0.16417343    -0.03900
Br885      Br  0.54532456  0.47008122  0.20110052     0.00600
Br886      Br  0.56622203  0.66800830  0.19683184    -0.03200
Br887      Br  0.48403849  0.58278113  0.22986697    -0.04000
Br888      Br  0.39521049  0.56857853  0.16109942    -0.00100
C889        C  0.31614087  0.81708739  0.56580771     0.01400
C890        C  0.34406441  0.83523931  0.57861617     0.04200
C891        C  0.33934983  0.80889807  0.59133556    -0.11900
C892        C  0.30525840  0.76502258  0.59167199     0.23500
C893        C  0.27816106  0.74649830  0.57874021    -0.12400
C894        C  0.28442447  0.77220549  0.56565580     0.04900
C895        C  0.29477943  0.74008369  0.60620547     0.27300
C896        C  0.30725741  0.70856444  0.60852502    -0.13100
C897        C  0.29534466  0.68381953  0.62212927     0.05400
C898        C  0.27249712  0.69198149  0.63383852    -0.09100
C899        C  0.26129881  0.72471278  0.63155272     0.06200
C900        C  0.27164826  0.74794850  0.61768604    -0.13500
Br901      Br  0.23055142  0.68679117  0.57941526    -0.05500
Br902      Br  0.38622626  0.89706246  0.57945241     0.00100
Br903      Br  0.30833447  0.63714828  0.62396726     0.00500
Br904      Br  0.25403915  0.79087234  0.61431196    -0.03900
Br905      Br  0.24959242  0.74604884  0.54753836     0.00600
Br906      Br  0.37785942  0.83343394  0.60876756    -0.03200
Br907      Br  0.34087744  0.69964942  0.59299345    -0.04000
Br908      Br  0.23387396  0.74012654  0.64756725    -0.00100
C909        C  0.24836432  0.89260988  0.53916163     0.01400
C910        C  0.23287086  0.90664035  0.55160428     0.04200
C911        C  0.19410277  0.90826480  0.55013616    -0.11900
C912        C  0.17196572  0.89837234  0.53596925     0.23500
C913        C  0.18790427  0.88533202  0.52342652    -0.12400
C914        C  0.22549290  0.88168344  0.52508895     0.04900
C915        C  0.13147259  0.90083191  0.53424081     0.27300
C916        C  0.09044091  0.86212841  0.53392881    -0.13100
C917        C  0.05238341  0.86396616  0.53090410     0.05400
C918        C  0.05476258  0.90480847  0.52921118    -0.09100
C919        C  0.09565988  0.94368297  0.53027063     0.06200
C920        C  0.13397947  0.94164477  0.53247799    -0.13500
Br921      Br  0.15736213  0.87133281  0.50403774    -0.05500
Br922      Br  0.26533159  0.92480245  0.57057694     0.00100
Br923      Br  0.99732956  0.81024394  0.52845409     0.00500
Br924      Br  0.18991302  0.99488164  0.53342957    -0.03900
Br925      Br  0.24400027  0.85922056  0.50830055     0.00600
Br926      Br  0.17003404  0.92205202  0.56769698    -0.03200
Br927      Br  0.08640973  0.80671487  0.53823641    -0.04000
Br928      Br  0.09910967  0.99990085  0.52987228    -0.00100
C929        C  0.49282925  0.11986181  0.41992897     0.01400
C930        C  0.44895062  0.08556616  0.42178402     0.04200
C931        C  0.43668118  0.05836670  0.43481621    -0.11900
C932        C  0.46810068  0.06402074  0.44584076     0.23500
C933        C  0.51201783  0.09663195  0.44376790    -0.12400
C934        C  0.52448657  0.12460293  0.43096983     0.04900
C935        C  0.45515708  0.03676860  0.45995053     0.27300
C936        C  0.44580204  0.05236533  0.47347369    -0.13100
C937        C  0.43866236  0.02942493  0.48734008     0.05400
C938        C  0.44096651  0.99080794  0.48773736    -0.09100
C939        C  0.44758275  0.97375287  0.47401742     0.06200
C940        C  0.45503347  0.99687456  0.46016994    -0.13500
Br941      Br  0.55503375  0.10323073  0.45881521    -0.05500
Br942      Br  0.40555451  0.07295869  0.40611031     0.00100
Br943      Br  0.42781679  0.05207033  0.50592314     0.00500
Br944      Br  0.46685598  0.97496325  0.44161108    -0.03900
Br945      Br  0.58513310  0.17004466  0.42930124     0.00600
Br946      Br  0.37661107  0.01323325  0.43775371    -0.03200
Br947      Br  0.44481199  0.10636652  0.47304479    -0.04000
Br948      Br  0.44617616  0.91851902  0.47425848    -0.00100
C949        C  0.71209228  0.93395786  0.52607988     0.01400
C950        C  0.69137558  0.93187163  0.54031408     0.04200
C951        C  0.65394351  0.93627313  0.54080812    -0.11900
C952        C  0.63841506  0.94595549  0.52741496     0.23500
C953        C  0.66064328  0.95151470  0.51348327    -0.12400
C954        C  0.69601619  0.94382941  0.51261164     0.04900
C955        C  0.59682842  0.94704562  0.52763826     0.27300
C956        C  0.55798932  0.91036820  0.52235863    -0.13100
C957        C  0.51909655  0.91184736  0.52142726     0.05400
C958        C  0.51875077  0.95016064  0.52561727    -0.09100
C959        C  0.55692441  0.98606446  0.53165686     0.06200
C960        C  0.59596967  0.98458578  0.53264290    -0.13500
Br961      Br  0.64226215  0.97005281  0.49554418    -0.05500
Br962      Br  0.71472399  0.92593817  0.55962162     0.00100
Br963      Br  0.46641220  0.86174405  0.51384903     0.00500
Br964      Br  0.64861174  0.03436936  0.54033422    -0.03900
Br965      Br  0.71963976  0.94464216  0.49254855     0.00600
Br966      Br  0.62333555  0.92874922  0.55990690    -0.03200
Br967      Br  0.55848436  0.85841990  0.51590169    -0.04000
Br968      Br  0.55538003  0.03703499  0.53855334    -0.00100
C969        C  0.22951365  0.96307408  0.67810879     0.01400
C970        C  0.20236847  0.93502365  0.68977495     0.04200
C971        C  0.20259933  0.89633267  0.69317589    -0.11900
C972        C  0.22951640  0.88507234  0.68479459     0.23500
C973        C  0.25789422  0.91384860  0.67350110    -0.12400
C974        C  0.25773201  0.95274358  0.67010337     0.04900
C975        C  0.22561803  0.84162507  0.68724664     0.27300
C976        C  0.25126510  0.83636009  0.69835924    -0.13100
C977        C  0.24701981  0.79496691  0.70086179     0.05400
C978        C  0.21628858  0.75775088  0.69214720    -0.09100
C979        C  0.18772678  0.76313514  0.68199738     0.06200
C980        C  0.19366746  0.80500475  0.67920696    -0.13500
Br981      Br  0.29640667  0.89943853  0.66263152    -0.05500
Br982      Br  0.16310198  0.94856984  0.70060900     0.00100
Br983      Br  0.28321962  0.79159377  0.71684782     0.00500
Br984      Br  0.15743303  0.81266221  0.66439029    -0.03900
Br985      Br  0.29533036  0.99146696  0.65433188     0.00600
Br986      Br  0.16537502  0.85809205  0.70915184    -0.03200
Br987      Br  0.29193902  0.88659488  0.71032101    -0.04000
Br988      Br  0.13694451  0.71379322  0.67281876    -0.00100
C989        C  0.00724378  0.97620772  0.58503474     0.01400
C990        C  0.03846210  0.96239692  0.58615151     0.04200
C991        C  0.06507949  0.97236149  0.59925588    -0.11900
C992        C  0.06273712  0.99813803  0.61109998     0.23500
C993        C  0.03333626  0.01376914  0.60983248    -0.12400
C994        C  0.00533279  0.00257343  0.59697216     0.04900
C995        C  0.09279654  0.00992627  0.62450838     0.27300
C996        C  0.07894004  0.98482536  0.63804743    -0.13100
C997        C  0.10919201  0.99230103  0.64983500     0.05400
C998        C  0.15361917  0.02437270  0.64803712    -0.09100
C999        C  0.16712754  0.05047094  0.63471813     0.06200
C1000       C  0.13659365  0.04385983  0.62315070    -0.13500
Br1001     Br  0.03195073  0.05083913  0.62581204    -0.05500
Br1002     Br  0.04825841  0.93283988  0.56932956     0.00100
Br1003     Br  0.08980654  0.95871045  0.66851240     0.00500
Br1004     Br  0.15453373  0.08093935  0.60528220    -0.03900
Br1005     Br  0.96384303  0.02276898  0.59626744     0.00600
Br1006     Br  0.10534763  0.95077160  0.60105287    -0.03200
Br1007     Br  0.01860623  0.93980816  0.64031880    -0.04000
Br1008     Br  0.22795139  0.09346012  0.63186911    -0.00100
C1009       C  0.23210447  0.40739560  0.69191345     0.01400
C1010       C  0.24282369  0.39488061  0.67787797     0.04200
C1011       C  0.24873612  0.35841610  0.67733049    -0.11900
C1012       C  0.24729373  0.33641676  0.69093901     0.23500
C1013       C  0.23827195  0.34986487  0.70499112    -0.12400
C1014       C  0.22818480  0.38344149  0.70531569     0.04900
C1015       C  0.25246783  0.29739394  0.69056015     0.27300
C1016       C  0.21534090  0.25553517  0.69225127    -0.13100
C1017       C  0.22024009  0.21878953  0.69407751     0.05400
C1018       C  0.26230975  0.22364676  0.69384244    -0.09100
C1019       C  0.29927167  0.26526765  0.69134738     0.06200
C1020       C  0.29437846  0.30214003  0.68975933    -0.13500
Br1021     Br  0.23985183  0.32220863  0.72386495    -0.05500
Br1022     Br  0.25112446  0.42800569  0.65940499     0.00100
Br1023     Br  0.16942957  0.16244924  0.69809131     0.00500
Br1024     Br  0.34512398  0.35937321  0.68706717    -0.03900
Br1025     Br  0.20422770  0.39287844  0.72377387     0.00600
Br1026     Br  0.25811362  0.33798708  0.65794907    -0.03200
Br1027     Br  0.15779649  0.24901443  0.69262623    -0.04000
Br1028     Br  0.35669139  0.27180392  0.69034669    -0.00100
C1029       C  0.31351690  0.15120329  0.73021678     0.01400
C1030       C  0.35308481  0.15059592  0.72956499     0.04200
C1031       C  0.37838512  0.15832689  0.74291725    -0.11900
C1032       C  0.36561791  0.16905539  0.75679769     0.23500
C1033       C  0.32629253  0.16985692  0.75747425    -0.12400
C1034       C  0.29954142  0.15937003  0.74438188     0.04900
C1035       C  0.39374088  0.17976759  0.77065282     0.27300
C1036       C  0.38482944  0.14734371  0.78167721    -0.13100
C1037       C  0.41072862  0.15760382  0.79499090     0.05400
C1038       C  0.44746531  0.20002073  0.79696833    -0.09100
C1039       C  0.45726000  0.23201742  0.78551675     0.06200
C1040       C  0.42951682  0.22228372  0.77273354    -0.13500
Br1041     Br  0.31028024  0.18743484  0.77618834    -0.05500
Br1042     Br  0.37454612  0.14235162  0.71023535     0.00100
Br1043     Br  0.39342507  0.11373483  0.81080608     0.00500
Br1044     Br  0.43971796  0.26746179  0.75816694    -0.03900
Br1045     Br  0.24319735  0.15518500  0.74595844     0.00600
Br1046     Br  0.43127974  0.15533627  0.74220367    -0.03200
Br1047     Br  0.33664084  0.08875564  0.77849099    -0.04000
Br1048     Br  0.51003740  0.28851627  0.78659277    -0.00100
C1049       C  0.55320216  0.06673154  0.36134073     0.01400
C1050       C  0.55342261  0.04614882  0.37524699     0.04200
C1051       C  0.55924619  0.00957450  0.37506480    -0.11900
C1052       C  0.56184042  0.99119798  0.36103479     0.23500
C1053       C  0.55961657  0.01027881  0.34714867    -0.12400
C1054       C  0.55646354  0.04843936  0.34726532     0.04900
C1055       C  0.56871088  0.95291808  0.36100004     0.27300
C1056       C  0.61039340  0.95896740  0.35774001    -0.13100
C1057       C  0.61740778  0.92324571  0.35829730     0.05400
C1058       C  0.58413600  0.88215109  0.36351650    -0.09100
C1059       C  0.54253616  0.87606451  0.36691081     0.06200
C1060       C  0.53431881  0.91086903  0.36496838    -0.13500
Br1061     Br  0.56187565  0.98447156  0.32788998    -0.05500
Br1062     Br  0.54357723  0.06602280  0.39468991     0.00100
Br1063     Br  0.67243481  0.93034872  0.35153581     0.00500
Br1064     Br  0.47605647  0.90115851  0.36768423    -0.03900
Br1065     Br  0.55999353  0.07678315  0.32796867     0.00600
Br1066     Br  0.56557872  0.98551881  0.39411975    -0.03200
Br1067     Br  0.65852255  0.01660587  0.35317917    -0.04000
Br1068     Br  0.49770812  0.82088480  0.37496921    -0.00100
C1069       C  0.66131174  0.82211361  0.39385085     0.01400
C1070       C  0.69717420  0.86269393  0.39841094     0.04200
C1071       C  0.71623747  0.86731256  0.41290270    -0.11900
C1072       C  0.70405490  0.83027025  0.42209553     0.23500
C1073       C  0.67161463  0.78871634  0.41686784    -0.12400
C1074       C  0.64866955  0.78486571  0.40318820     0.04900
C1075       C  0.72578482  0.83572960  0.43718091     0.27300
C1076       C  0.77014536  0.84734466  0.43773335    -0.13100
C1077       C  0.79302368  0.86024423  0.45170621     0.05400
C1078       C  0.77091847  0.85834951  0.46535935    -0.09100
C1079       C  0.72565977  0.84251492  0.46505127     0.06200
C1080       C  0.70349438  0.83318355  0.45091362    -0.13500
Br1081     Br  0.65872106  0.73723223  0.42849357    -0.05500
Br1082     Br  0.72269231  0.91160351  0.38450864     0.00100
Br1083     Br  0.85506623  0.88219220  0.45206266     0.00500
Br1084     Br  0.64338728  0.81927059  0.45033093    -0.03900
Br1085     Br  0.59838609  0.72898491  0.39805369     0.00600
Br1086     Br  0.75778501  0.92496874  0.42045319    -0.03200
Br1087     Br  0.79974620  0.84645409  0.41925996    -0.04000
Br1088     Br  0.69393289  0.83176152  0.48402528    -0.00100
C1089       C  0.54716493  0.42325304  0.36082659     0.01400
C1090       C  0.51377934  0.42600937  0.35268942     0.04200
C1091       C  0.51783706  0.46691702  0.34953218    -0.11900
C1092       C  0.55377871  0.50548309  0.35514147     0.23500
C1093       C  0.58536325  0.50313113  0.36419996    -0.12400
C1094       C  0.58225706  0.46242455  0.36713289     0.04900
C1095       C  0.55791598  0.54857546  0.35168672     0.27300
C1096       C  0.58207698  0.57273050  0.33884690    -0.13100
C1097       C  0.58551831  0.61323297  0.33545411     0.05400
C1098       C  0.56371001  0.62921736  0.34463153    -0.09100
C1099       C  0.53943196  0.60490933  0.35746563     0.06200
C1100       C  0.53700371  0.56496805  0.36107409    -0.13500
Br1101     Br  0.63352605  0.55651526  0.37232510    -0.05500
Br1102     Br  0.46003506  0.37425852  0.34679226     0.00100
Br1103     Br  0.62090690  0.64719813  0.31838783     0.00500
Br1104     Br  0.50424216  0.53198881  0.37871066    -0.03900
Br1105     Br  0.62729938  0.46244469  0.37968747     0.00600
Br1106     Br  0.47437173  0.47061182  0.33723749    -0.03200
Br1107     Br  0.60954393  0.54959456  0.32573162    -0.04000
Br1108     Br  0.50744681  0.62500478  0.36964144    -0.00100
C1109       C  0.35375135  0.64469838  0.25033072     0.01400
C1110       C  0.39445631  0.68375655  0.24883975     0.04200
C1111       C  0.42446949  0.69874814  0.26102551    -0.11900
C1112       C  0.41571340  0.67297342  0.27424506     0.23500
C1113       C  0.37536908  0.63378762  0.27575035    -0.12400
C1114       C  0.34382823  0.62059631  0.26405958     0.04900
C1115       C  0.44984503  0.68579827  0.28616382     0.27300
C1116       C  0.48591337  0.68016997  0.28340458    -0.13100
C1117       C  0.51762239  0.69083673  0.29485099     0.05400
C1118       C  0.51149574  0.70359480  0.30954950    -0.09100
C1119       C  0.47522518  0.70917497  0.31228880     0.06200
C1120       C  0.44566500  0.70223307  0.30037815    -0.13500
Br1121     Br  0.36379577  0.59758816  0.29366064    -0.05500
Br1122     Br  0.41156717  0.71494418  0.22968740     0.00100
Br1123     Br  0.56970148  0.68855092  0.29024742     0.00500
Br1124     Br  0.39893369  0.71450061  0.30354272    -0.03900
Br1125     Br  0.28631525  0.57105593  0.26727293     0.00600
Br1126     Br  0.47794513  0.75449611  0.25961708    -0.03200
Br1127     Br  0.49083372  0.65592655  0.26415784    -0.04000
Br1128     Br  0.46316547  0.72217938  0.33262564    -0.00100
C1129       C  0.81406805  0.96715961  0.08502185     0.01400
C1130       C  0.83400543  0.01276584  0.08834909     0.04200
C1131       C  0.82194554  0.02726763  0.10152560    -0.11900
C1132       C  0.78748937  0.99733293  0.11079434     0.23500
C1133       C  0.76435901  0.95284641  0.10675734    -0.12400
C1134       C  0.77750712  0.93744407  0.09409153     0.04900
C1135       C  0.77545219  0.01218838  0.12496383     0.27300
C1136       C  0.79037814  0.00662788  0.13929769    -0.13100
C1137       C  0.77465568  0.01520321  0.15290564     0.05400
C1138       C  0.74479549  0.03040723  0.15222723    -0.09100
C1139       C  0.73189159  0.03845759  0.13788162     0.06200
C1140       C  0.74670832  0.02879379  0.12425776    -0.13500
Br1141     Br  0.71428849  0.91297311  0.11889552    -0.05500
Br1142     Br  0.87454853  0.05715910  0.07436956     0.00100
Br1143     Br  0.79200775  0.00379579  0.17251676     0.00500
Br1144     Br  0.72564862  0.03568316  0.10465606    -0.03900
Br1145     Br  0.74303883  0.87545529  0.08963665     0.00600
Br1146     Br  0.85296523  0.08842448  0.10714443    -0.03200
Br1147     Br  0.83077314  0.98515946  0.14019498    -0.04000
Br1148     Br  0.69264680  0.06123365  0.13697278    -0.00100
C1149       C  0.61585521  0.95473261  0.18624516     0.01400
C1150       C  0.60844377  0.92869724  0.19939719     0.04200
C1151       C  0.56693585  0.89187631  0.20197043    -0.11900
C1152       C  0.53318349  0.88025758  0.19118758     0.23500
C1153       C  0.54047438  0.90612446  0.17807749    -0.12400
C1154       C  0.58145085  0.94360153  0.17571296     0.04900
C1155       C  0.49100830  0.83900003  0.19291673     0.27300
C1156       C  0.48778554  0.79936765  0.18834702    -0.13100
C1157       C  0.44781030  0.76005864  0.18956317     0.05400
C1158       C  0.40967616  0.76058082  0.19407379    -0.09100
C1159       C  0.41308884  0.80068551  0.19866764     0.06200
C1160       C  0.45389802  0.83955581  0.19836016    -0.13500
Br1161     Br  0.49449819  0.88904868  0.16306702    -0.05500
Br1162     Br  0.65571991  0.94164528  0.21336959     0.00100
Br1163     Br  0.44701773  0.70568823  0.18617759     0.00500
Br1164     Br  0.45898991  0.89413709  0.20486342    -0.03900
Br1165     Br  0.58984791  0.97978403  0.15805336     0.00600
Br1166     Br  0.55631231  0.85643532  0.22002534    -0.03200
Br1167     Br  0.53801032  0.79939449  0.17969625    -0.04000
Br1168     Br  0.36225321  0.80395154  0.20471192    -0.00100
C1169       C  0.69474002  0.15097415  0.23220768     0.01400
C1170       C  0.68275710  0.12072548  0.24439419     0.04200
C1171       C  0.66271944  0.12550997  0.25761255    -0.11900
C1172       C  0.65361342  0.15984024  0.25862307     0.23500
C1173       C  0.66241198  0.18795907  0.24602677    -0.12400
C1174       C  0.68311544  0.18367779  0.23286725     0.04900
C1175       C  0.63757473  0.16798795  0.27332899     0.27300
C1176       C  0.59257500  0.14767624  0.27637505    -0.13100
C1177       C  0.57761487  0.15446592  0.29055605     0.05400
C1178       C  0.60796085  0.18379823  0.30159363    -0.09100
C1179       C  0.65325917  0.20135455  0.29877531     0.06200
C1180       C  0.66781096  0.19398314  0.28466437    -0.13500
Br1181     Br  0.64682194  0.23284538  0.24705058    -0.05500
Br1182     Br  0.69532706  0.07362366  0.24343013     0.00100
Br1183     Br  0.51557243  0.12092776  0.29455613     0.00500
Br1184     Br  0.72960912  0.21910318  0.28078785    -0.03900
Br1185     Br  0.69496373  0.22210240  0.21564064     0.00600
Br1186     Br  0.64932455  0.08623723  0.27473174    -0.03200
Br1187     Br  0.55160759  0.11040629  0.26090375    -0.04000
Br1188     Br  0.69609110  0.23133237  0.31469186    -0.00100
C1189       C  0.84134030  0.21513582  0.20673906     0.01400
C1190       C  0.85886780  0.23278574  0.19213309     0.04200
C1191       C  0.90226904  0.26739507  0.19076112    -0.11900
C1192       C  0.92718042  0.28801712  0.20393554     0.23500
C1193       C  0.91019149  0.27065484  0.21852392    -0.12400
C1194       C  0.86822294  0.23324381  0.21987783     0.04900
C1195       C  0.96952275  0.32983091  0.20228525     0.27300
C1196       C  0.00976571  0.33101560  0.20386229    -0.13100
C1197       C  0.04935241  0.37080392  0.20207823     0.05400
C1198       C  0.04894935  0.40865981  0.19735186    -0.09100
C1199       C  0.00882178  0.40764763  0.19588707     0.06200
C1200       C  0.96931484  0.36857792  0.19859878    -0.13500
Br1201     Br  0.94399612  0.29891749  0.23668073    -0.05500
Br1202     Br  0.82294961  0.21312038  0.17391200     0.00100
Br1203     Br  0.10373402  0.37478603  0.20796100     0.00500
Br1204     Br  0.91472978  0.36823470  0.19736954    -0.03900
Br1205     Br  0.84882249  0.20608093  0.23972321     0.00600
Br1206     Br  0.92802363  0.28722842  0.17074804    -0.03200
Br1207     Br  0.01075180  0.27811103  0.20814583    -0.04000
Br1208     Br  0.00797755  0.46013456  0.19042553    -0.00100
C1209       C  0.72377024  0.23790129  0.35724392     0.01400
C1210       C  0.72369005  0.19935736  0.36195618     0.04200
C1211       C  0.76072513  0.19514468  0.35951911    -0.11900
C1212       C  0.79729428  0.22816715  0.35184787     0.23500
C1213       C  0.79699770  0.26546582  0.34652198    -0.12400
C1214       C  0.76122938  0.27117841  0.34960594     0.04900
C1215       C  0.83777159  0.22587156  0.35033512     0.27300
C1216       C  0.87228715  0.24951169  0.36072133    -0.13100
C1217       C  0.91330023  0.25360361  0.35810445     0.05400
C1218       C  0.91968003  0.23316804  0.34526100    -0.09100
C1219       C  0.88434601  0.20722403  0.33539713     0.06200
C1220       C  0.84341134  0.20373894  0.33788992    -0.13500
Br1221     Br  0.84619687  0.30882220  0.33486306    -0.05500
Br1222     Br  0.67284541  0.15039088  0.37102597     0.00100
Br1223     Br  0.96152917  0.28989556  0.37154902     0.00500
Br1224     Br  0.79546327  0.17008780  0.32403053    -0.03900
Br1225     Br  0.76597336  0.32617781  0.34381211     0.00600
Br1226     Br  0.76171438  0.14394827  0.36659348    -0.03200
Br1227     Br  0.86354643  0.27775538  0.37822486    -0.04000
Br1228     Br  0.89233521  0.17703507  0.31840685    -0.00100
C1229       C  0.05637718  0.31442948  0.31484374     0.01400
C1230       C  0.08272181  0.35972144  0.31748418     0.04200
C1231       C  0.10430027  0.38825581  0.30514435    -0.11900
C1232       C  0.10044693  0.37142621  0.29017806     0.23500
C1233       C  0.07555232  0.32588649  0.28769608    -0.12400
C1234       C  0.05291706  0.29757760  0.29993404     0.04900
C1235       C  0.12017356  0.40142005  0.27684491     0.27300
C1236       C  0.09381473  0.41142601  0.26767586    -0.13100
C1237       C  0.11097497  0.43740455  0.25445317     0.05400
C1238       C  0.15618063  0.45622749  0.25060264    -0.09100
C1239       C  0.18196559  0.44399358  0.25963429     0.06200
C1240       C  0.16394720  0.41718472  0.27271016    -0.13500
Br1241     Br  0.07254163  0.30243342  0.26745011    -0.05500
Br1242     Br  0.08835483  0.38249038  0.33799325     0.00100
Br1243     Br  0.06941559  0.44180871  0.24119157     0.00500
Br1244     Br  0.19890551  0.40112128  0.28510365    -0.03900
Br1245     Br  0.01667101  0.23560654  0.29628938     0.00600
Br1246     Br  0.13850478  0.45042050  0.30864608    -0.03200
Br1247     Br  0.03328658  0.38856528  0.27332306    -0.04000
Br1248     Br  0.24137498  0.46085356  0.25429211    -0.00100
C1249       C  0.03396847  0.16760257  0.39920787     0.01400
C1250       C  0.99419242  0.12734762  0.39968637     0.04200
C1251       C  0.97825251  0.10547349  0.41376724    -0.11900
C1252       C  0.00348886  0.12176696  0.42725673     0.23500
C1253       C  0.04300772  0.16216483  0.42679699    -0.12400
C1254       C  0.05709156  0.18585960  0.41298058     0.04900
C1255       C  0.98920852  0.09510365  0.44160564     0.27300
C1256       C  0.96986020  0.10579175  0.45371997    -0.13100
C1257       C  0.95440722  0.07895362  0.46686754     0.05400
C1258       C  0.95559948  0.03956874  0.46759748    -0.09100
C1259       C  0.97551589  0.02932289  0.45546029     0.06200
C1260       C  0.99342622  0.05768002  0.44282420    -0.13500
Br1261     Br  0.07908362  0.18407724  0.44487722    -0.05500
Br1262     Br  0.96288516  0.10031977  0.38099984     0.00100
Br1263     Br  0.93452804  0.09813714  0.48422905     0.00500
Br1264     Br  0.02425387  0.04549391  0.42710128    -0.03900
Br1265     Br  0.10754984  0.24405975  0.41296305     0.00600
Br1266     Br  0.92193854  0.05264169  0.41462583    -0.03200
Br1267     Br  0.96394785  0.15696420  0.45214524    -0.04000
Br1268     Br  0.97634425  0.97517892  0.45544669    -0.00100
C1269       C  0.15850072  0.22164057  0.36301288     0.01400
C1270       C  0.16508749  0.18576396  0.36134377     0.04200
C1271       C  0.20759333  0.19227610  0.36146801    -0.11900
C1272       C  0.24383513  0.23495765  0.36232562     0.23500
C1273       C  0.23752288  0.27118215  0.36295154    -0.12400
C1274       C  0.19487019  0.26454515  0.36351854     0.04900
C1275       C  0.28846839  0.24130618  0.36259872     0.27300
C1276       C  0.30561433  0.23543330  0.37633309    -0.13100
C1277       C  0.34610766  0.23701855  0.37637636     0.05400
C1278       C  0.36991539  0.24449399  0.36250274    -0.09100
C1279       C  0.35351675  0.25345584  0.34886723     0.06200
C1280       C  0.31274153  0.25122964  0.34899201    -0.13500
Br1281     Br  0.28747645  0.32964923  0.36361391    -0.05500
Br1282     Br  0.11569404  0.12768686  0.35860852     0.00100
Br1283     Br  0.36888556  0.23137674  0.39588891     0.00500
Br1284     Br  0.28908101  0.26075791  0.33035584    -0.03900
Br1285     Br  0.18659333  0.31413578  0.36584190     0.00600
Br1286     Br  0.21626321  0.14259751  0.36115312    -0.03200
Br1287     Br  0.27293735  0.22496771  0.39513091    -0.04000
Br1288     Br  0.38477774  0.26824980  0.32954155    -0.00100
C1289       C  0.70270452  0.89983185  0.02692917     0.01400
C1290       C  0.68793174  0.91134915  0.04019210     0.04200
C1291       C  0.64737254  0.90948553  0.04012921    -0.11900
C1292       C  0.62278248  0.89925849  0.02648904     0.23500
C1293       C  0.63852787  0.88996298  0.01300369    -0.12400
C1294       C  0.67765315  0.88880032  0.01334054     0.04900
C1295       C  0.57973209  0.89688661  0.02660151     0.27300
C1296       C  0.54112743  0.85589615  0.02742871    -0.13100
C1297       C  0.50055926  0.85356306  0.02919558     0.05400
C1298       C  0.49845343  0.89217194  0.03070711    -0.09100
C1299       C  0.53693615  0.93321669  0.02912082     0.06200
C1300       C  0.57742122  0.93550157  0.02687987    -0.13500
Br1301     Br  0.60653893  0.87911905  0.99406362    -0.05500
Br1302     Br  0.72445103  0.93306535  0.05813859     0.00100
Br1303     Br  0.44783821  0.79731097  0.02924432     0.00500
Br1304     Br  0.63009627  0.99149012  0.02461619    -0.03900
Br1305     Br  0.69550047  0.86982662  0.99537419     0.00600
Br1306     Br  0.62514673  0.92036130  0.05883786    -0.03200
Br1307     Br  0.54406193  0.80287275  0.02677115    -0.04000
Br1308     Br  0.53476510  0.98646171  0.03084971    -0.00100
C1309       C  0.37848879  0.84768911  0.06865964     0.01400
C1310       C  0.35830714  0.80171515  0.06904868     0.04200
C1311       C  0.34275373  0.77906099  0.08295284    -0.11900
C1312       C  0.34450725  0.80178717  0.09645063     0.23500
C1313       C  0.36212373  0.84752007  0.09593440    -0.12400
C1314       C  0.37970572  0.87054123  0.08210364     0.04900
C1315       C  0.32785770  0.77695053  0.11106033     0.27300
C1316       C  0.28299176  0.75537102  0.11441812    -0.13100
C1317       C  0.26613894  0.72685629  0.12710334     0.05400
C1318       C  0.29437936  0.71887640  0.13653810    -0.09100
C1319       C  0.34027247  0.74479918  0.13392469     0.06200
C1320       C  0.35652845  0.77260782  0.12106013    -0.13500
Br1321     Br  0.36257549  0.87836188  0.11423918    -0.05500
Br1322     Br  0.35006050  0.76937932  0.05034152     0.00100
Br1323     Br  0.20440422  0.70129102  0.13123460     0.00500
Br1324     Br  0.41848593  0.80471875  0.11683605    -0.03900
Br1325     Br  0.40606132  0.93325372  0.08158699     0.00600
Br1326     Br  0.32023902  0.71679254  0.08365480    -0.03200
Br1327     Br  0.24464637  0.76496350  0.10128098    -0.04000
Br1328     Br  0.38247786  0.74703544  0.14853256    -0.00100
C1329       C  0.48469380  0.11991269  0.91543708     0.01400
C1330       C  0.50854413  0.13204485  0.92928947     0.04200
C1331       C  0.49263700  0.10465372  0.94221065    -0.11900
C1332       C  0.45071153  0.06698326  0.94190405     0.23500
C1333       C  0.42611484  0.05550921  0.92818589    -0.12400
C1334       C  0.44376319  0.08097541  0.91486720     0.04900
C1335       C  0.43237566  0.04002898  0.95604477     0.27300
C1336       C  0.42806268  0.99821769  0.95707297    -0.13100
C1337       C  0.40935490  0.97221391  0.97021470     0.05400
C1338       C  0.39639033  0.98846331  0.98271611    -0.09100
C1339       C  0.40230440  0.03099111  0.98191995     0.06200
C1340       C  0.41937969  0.05628895  0.96854530    -0.13500
Br1341     Br  0.36782978  0.00534599  0.92767812    -0.05500
Br1342     Br  0.56115115  0.18804188  0.93111135     0.00100
Br1343     Br  0.39949464  0.91341197  0.97070943     0.00500
Br1344     Br  0.42410971  0.11302914  0.96726275    -0.03900
Br1345     Br  0.41255062  0.06143263  0.89571411     0.00600
Br1346     Br  0.52875310  0.11848450  0.96028799    -0.03200
Br1347     Br  0.44799685  0.97657888  0.94044434    -0.04000
Br1348     Br  0.38798577  0.05520197  0.99933872    -0.00100
C1349       C  0.06782097  0.91544519  0.02980885     0.01400
C1350       C  0.10189287  0.94707940  0.02031127     0.04200
C1351       C  0.14077539  0.94619477  0.01837842    -0.11900
C1352       C  0.14738759  0.91571239  0.02638537     0.23500
C1353       C  0.11626063  0.88730689  0.03695520    -0.12400
C1354       C  0.07669730  0.88713471  0.03887076     0.04900
C1355       C  0.18779271  0.91423177  0.02374869     0.27300
C1356       C  0.18827335  0.88552454  0.01264695    -0.13100
C1357       C  0.22766496  0.88690273  0.00911347     0.05400
C1358       C  0.26651919  0.91727568  0.01658342    -0.09100
C1359       C  0.26564354  0.94495362  0.02806762     0.06200
C1360       C  0.22623782  0.94329943  0.03168629    -0.13500
Br1361     Br  0.12851282  0.84841524  0.04872114    -0.05500
Br1362     Br  0.09891833  0.99476257  0.01054353     0.00100
Br1363     Br  0.22859754  0.84742644  0.99407653     0.00500
Br1364     Br  0.22487562  0.98173874  0.04713845    -0.03900
Br1365     Br  0.03732215  0.84842020  0.05447988     0.00600
Br1366     Br  0.18563449  0.98681969  0.00458416    -0.03200
Br1367     Br  0.13507451  0.84540911  0.00202371    -0.04000
Br1368     Br  0.31879591  0.98644886  0.03841754    -0.00100
C1369       C  0.35586443  0.48528252  0.56425465     0.01400
C1370       C  0.33823678  0.45199443  0.57552516     0.04200
C1371       C  0.31904018  0.45735810  0.58884374    -0.11900
C1372       C  0.31941645  0.49676950  0.59142928     0.23500
C1373       C  0.33636664  0.52981223  0.58022038    -0.12400
C1374       C  0.35344060  0.52365058  0.56647711     0.04900
C1375       C  0.30382464  0.50428526  0.60626077     0.27300
C1376       C  0.26160441  0.49844297  0.60743869    -0.13100
C1377       C  0.24751945  0.50720752  0.62137679     0.05400
C1378       C  0.27573162  0.52189845  0.63423415    -0.09100
C1379       C  0.31756832  0.52638513  0.63311439     0.06200
C1380       C  0.33158522  0.51772946  0.61915188    -0.13500
Br1381     Br  0.33785229  0.58430237  0.58411269    -0.05500
Br1382     Br  0.34376364  0.40055045  0.57373047     0.00100
Br1383     Br  0.19034352  0.50110748  0.62236535     0.00500
Br1384     Br  0.38908881  0.52457169  0.61759222    -0.03900
Br1385     Br  0.37302143  0.56782397  0.55072737     0.00600
Br1386     Br  0.29360347  0.41140486  0.60397323    -0.03200
Br1387     Br  0.22341762  0.47899003  0.58979666    -0.04000
Br1388     Br  0.35523590  0.54243228  0.65082640    -0.00100
C1389       C  0.70149587  0.73877723  0.52870278     0.01400
C1390       C  0.70003102  0.69875448  0.52535749     0.04200
C1391       C  0.66059745  0.65878371  0.52679337    -0.11900
C1392       C  0.62256831  0.65831694  0.53162878     0.23500
C1393       C  0.62375747  0.69763523  0.53522277    -0.12400
C1394       C  0.66288030  0.73779118  0.53371341     0.04900
C1395       C  0.58078445  0.61655269  0.53280221     0.27300
C1396       C  0.55039538  0.60324718  0.52069961    -0.13100
C1397       C  0.50840200  0.56686325  0.52255213     0.05400
C1398       C  0.49706475  0.54335770  0.53645705    -0.09100
C1399       C  0.52844939  0.55497611  0.54816292     0.06200
C1400       C  0.57023030  0.59182410  0.54638349    -0.13500
Br1401     Br  0.57123599  0.69601785  0.54231312    -0.05500
Br1402     Br  0.75184894  0.69711262  0.51963087     0.00100
Br1403     Br  0.46580879  0.55090086  0.50633009     0.00500
Br1404     Br  0.61271313  0.60932353  0.56266276    -0.03900
Br1405     Br  0.66188919  0.79094328  0.53802625     0.00600
Br1406     Br  0.65835253  0.60413988  0.52240840    -0.03200
Br1407     Br  0.56609736  0.63589766  0.50178386    -0.04000
Br1408     Br  0.51424623  0.52011476  0.56653068    -0.00100
C1409       C  0.06691098  0.08891439  0.52606761     0.01400
C1410       C  0.08552390  0.11103660  0.51217555     0.04200
C1411       C  0.12716139  0.14862178  0.51222010    -0.11900
C1412       C  0.14956822  0.16523603  0.52616418     0.23500
C1413       C  0.13060530  0.14425124  0.54006373    -0.12400
C1414       C  0.08980648  0.10561467  0.54002042     0.04900
C1415       C  0.19281965  0.20540452  0.52613970     0.27300
C1416       C  0.23103362  0.20259935  0.52698741    -0.13100
C1417       C  0.27209723  0.24057370  0.52545597     0.05400
C1418       C  0.27483642  0.28118901  0.52273613    -0.09100
C1419       C  0.23647864  0.28408003  0.52256896     0.06200
C1420       C  0.19558036  0.24623983  0.52446423    -0.13500
Br1421     Br  0.16052474  0.16904259  0.55917583    -0.05500
Br1422     Br  0.05347076  0.09206375  0.49311129     0.00100
Br1423     Br  0.32452465  0.23688606  0.52704860     0.00500
Br1424     Br  0.14288741  0.24976735  0.52415173    -0.03900
Br1425     Br  0.06707199  0.07490666  0.55911683     0.00600
Br1426     Br  0.15354957  0.17791778  0.49317626    -0.03200
Br1427     Br  0.22685197  0.14645288  0.52967179    -0.04000
Br1428     Br  0.23911675  0.33902639  0.51854980    -0.00100
C1429       C  0.48392295  0.29919928  0.42110696     0.01400
C1430       C  0.45884091  0.26814298  0.43255069     0.04200
C1431       C  0.44184226  0.28025122  0.44500273    -0.11900
C1432       C  0.45131341  0.32375206  0.44660226     0.23500
C1433       C  0.47735586  0.35512006  0.43559648    -0.12400
C1434       C  0.49284095  0.34286557  0.42272910     0.04900
C1435       C  0.43423834  0.33639886  0.46003886     0.27300
C1436       C  0.39679030  0.34049778  0.45854561    -0.13100
C1437       C  0.37918609  0.34981629  0.47150213     0.05400
C1438       C  0.39784055  0.35326663  0.48606857    -0.09100
C1439       C  0.43555983  0.34969983  0.48754825     0.06200
C1440       C  0.45426488  0.34221903  0.47450323    -0.13500
Br1441     Br  0.49188531  0.41514605  0.43829696    -0.05500
Br1442     Br  0.44936421  0.20935064  0.43199018     0.00100
Br1443     Br  0.32920793  0.35749453  0.46943253     0.00500
Br1444     Br  0.50660514  0.33852428  0.47644482    -0.03900
Br1445     Br  0.52394860  0.38616152  0.40707700     0.00600
Br1446     Br  0.40525484  0.23717000  0.46001646    -0.03200
Br1447     Br  0.36838979  0.33121588  0.43889736    -0.04000
Br1448     Br  0.45989304  0.35217243  0.50757706    -0.00100
C1449       C  0.71430849  0.52066802  0.73726617     0.01400
C1450       C  0.73586828  0.53490403  0.75152814     0.04200
C1451       C  0.71877605  0.50833187  0.76460051    -0.11900
C1452       C  0.68016229  0.46739244  0.76348237     0.23500
C1453       C  0.65754895  0.45393748  0.74943342    -0.12400
C1454       C  0.67474505  0.48028773  0.73631126     0.04900
C1455       C  0.66493387  0.43730320  0.77683140     0.27300
C1456       C  0.68200146  0.40954904  0.77935202    -0.13100
C1457       C  0.66808220  0.38098897  0.79201973     0.05400
C1458       C  0.63544455  0.37899624  0.80210391    -0.09100
C1459       C  0.62079731  0.40939911  0.79996280     0.06200
C1460       C  0.63488455  0.43763946  0.78723563    -0.13500
Br1461     Br  0.60376792  0.39853661  0.74814624    -0.05500
Br1462     Br  0.78939091  0.59042232  0.75310296     0.00100
Br1463     Br  0.69627283  0.34688926  0.79529513     0.00500
Br1464     Br  0.61358622  0.47765208  0.78403544    -0.03900
Br1465     Br  0.64589711  0.45912028  0.71679091     0.00600
Br1466     Br  0.74876345  0.52715848  0.78402853    -0.03200
Br1467     Br  0.72486690  0.41109824  0.76522818    -0.04000
Br1468     Br  0.58546942  0.41707588  0.81518105    -0.00100
C1469       C  0.03452500  0.56912773  0.69419911     0.01400
C1470       C  0.01118055  0.56305190  0.68036364     0.04200
C1471       C  0.97191390  0.56395554  0.68043052    -0.11900
C1472       C  0.95458135  0.56859428  0.69435038     0.23500
C1473       C  0.97722308  0.57376402  0.70818383    -0.12400
C1474       C  0.01752394  0.57503572  0.70809824     0.04900
C1475       C  0.91237993  0.56788165  0.69460138     0.27300
C1476       C  0.91194360  0.60736086  0.69570058    -0.13100
C1477       C  0.87231149  0.60661659  0.69814742     0.05400
C1478       C  0.83274853  0.56627691  0.69899986    -0.09100
C1479       C  0.83305356  0.52681959  0.69692030     0.06200
C1480       C  0.87284135  0.52764636  0.69485248    -0.13500
Br1481     Br  0.95296611  0.57951872  0.72729865    -0.05500
Br1482     Br  0.03125999  0.55121404  0.66132682     0.00100
Br1483     Br  0.87300288  0.66081616  0.70165569     0.00500
Br1484     Br  0.87356086  0.47365287  0.69292757    -0.03900
Br1485     Br  0.05025622  0.58786200  0.72700780     0.00600
Br1486     Br  0.94197134  0.55962713  0.66144719    -0.03200
Br1487     Br  0.96611261  0.66236511  0.69434997    -0.04000
Br1488     Br  0.77901039  0.47144509  0.69715873    -0.00100
C1489       C  0.60024223  0.58904477  0.68489263     0.01400
C1490       C  0.59027922  0.60745519  0.69751016     0.04200
C1491       C  0.54756481  0.59957380  0.69949229    -0.11900
C1492       C  0.51515073  0.57463373  0.68857640     0.23500
C1493       C  0.52459352  0.55488541  0.67627075    -0.12400
C1494       C  0.56707663  0.56175124  0.67451444     0.04900
C1495       C  0.47289824  0.57361271  0.68909569     0.27300
C1496       C  0.43682073  0.53973596  0.69667655    -0.13100
C1497       C  0.39710963  0.53973048  0.69741058     0.05400
C1498       C  0.39370494  0.57474304  0.69091346    -0.09100
C1499       C  0.42999546  0.60771581  0.68257426     0.06200
C1500       C  0.46938206  0.60722678  0.68194983    -0.13500
Br1501     Br  0.47966813  0.52010009  0.66152418    -0.05500
Br1502     Br  0.63586436  0.64634948  0.71139965     0.00100
Br1503     Br  0.34711713  0.48908234  0.70613971     0.00500
Br1504     Br  0.51957491  0.65333364  0.67144738    -0.03900
Br1505     Br  0.58021010  0.53460657  0.65776514     0.00600
Br1506     Br  0.53354985  0.62439089  0.71678155    -0.03200
Br1507     Br  0.44242783  0.49352668  0.70615312    -0.04000
Br1508     Br  0.42787039  0.65407064  0.67146005    -0.00100
C1509       C  0.73768114  0.67870443  0.65575728     0.01400
C1510       C  0.73973860  0.71964168  0.65487731     0.04200
C1511       C  0.75779407  0.74632969  0.64184775    -0.11900
C1512       C  0.77528612  0.73309352  0.62987111     0.23500
C1513       C  0.77456928  0.69301225  0.63094723    -0.12400
C1514       C  0.75467435  0.66533077  0.64359875     0.04900
C1515       C  0.79039838  0.75904720  0.61547726     0.27300
C1516       C  0.76185481  0.74673553  0.60281708    -0.13100
C1517       C  0.77574334  0.77031034  0.58900884     0.05400
C1518       C  0.81838355  0.80675451  0.58777038    -0.09100
C1519       C  0.84691702  0.81934894  0.60055152     0.06200
C1520       C  0.83285363  0.79556250  0.61435985    -0.13500
Br1521     Br  0.79927697  0.67529142  0.61466248    -0.05500
Br1522     Br  0.71714176  0.73910003  0.67134009     0.00100
Br1523     Br  0.73665023  0.75076528  0.57159855     0.00500
Br1524     Br  0.87148546  0.81309493  0.63185209    -0.03900
Br1525     Br  0.74635117  0.60705617  0.64334722     0.00600
Br1526     Br  0.75663354  0.80008934  0.63993356    -0.03200
Br1527     Br  0.70336320  0.69726541  0.60447535    -0.04000
Br1528     Br  0.90476396  0.87022341  0.59953582    -0.00100
C1529       C  0.37753291  0.06972878  0.85659621     0.01400
C1530       C  0.33823382  0.06992622  0.85926470     0.04200
C1531       C  0.29897417  0.03034571  0.86147148    -0.11900
C1532       C  0.29789725  0.99026997  0.85977299     0.23500
C1533       C  0.33645639  0.98973609  0.85646435    -0.12400
C1534       C  0.37646911  0.02930847  0.85558857     0.04900
C1535       C  0.25608302  0.94895302  0.86196673     0.27300
C1536       C  0.24573004  0.92850903  0.87641223    -0.13100
C1537       C  0.20387422  0.89257143  0.87911107     0.05400
C1538       C  0.17166168  0.87803933  0.86752784    -0.09100
C1539       C  0.18253660  0.89796777  0.85290996     0.06200
C1540       C  0.22504988  0.93263772  0.85005961    -0.13500
Br1541     Br  0.33434169  0.93461779  0.85355450    -0.05500
Br1542     Br  0.33730675  0.12406621  0.85961986     0.00100
Br1543     Br  0.19106468  0.86306773  0.89865378     0.00500
Br1544     Br  0.24089424  0.95890557  0.82997573    -0.03900
Br1545     Br  0.42974847  0.02737617  0.85521780     0.00600
Br1546     Br  0.24668921  0.03077393  0.86747253    -0.03200
Br1547     Br  0.28854506  0.95093963  0.89266017    -0.04000
Br1548     Br  0.13868116  0.88047638  0.83707835    -0.00100
C1549       C  0.95183596  0.85512566  0.96876303     0.01400
C1550       C  0.92544603  0.84046293  0.95545656     0.04200
C1551       C  0.94138581  0.83178307  0.94190042    -0.11900
C1552       C  0.98431393  0.83910975  0.94134143     0.23500
C1553       C  0.01086011  0.85400675  0.95455284    -0.12400
C1554       C  0.99445367  0.86120829  0.96828801     0.04900
C1555       C  0.00180099  0.83202731  0.92676147     0.27300
C1556       C  0.00453004  0.79399631  0.92466293    -0.13100
C1557       C  0.02356913  0.78863968  0.91125977     0.05400
C1558       C  0.03638244  0.81941754  0.89920617    -0.09100
C1559       C  0.03111901  0.85622756  0.90101258     0.06200
C1560       C  0.01587702  0.86349174  0.91500242    -0.13500
Br1561     Br  0.07023745  0.86566597  0.95367708    -0.05500
Br1562     Br  0.86863345  0.83532304  0.95525102     0.00100
Br1563     Br  0.03535509  0.74101087  0.91018405     0.00500
Br1564     Br  0.01584923  0.91741483  0.91836714    -0.03900
Br1565     Br  0.03010551  0.87784728  0.98657362     0.00600
Br1566     Br  0.90467359  0.81044853  0.92391096    -0.03200
Br1567     Br  0.98239607  0.74939250  0.94028264    -0.04000
Br1568     Br  0.04324931  0.89609123  0.88418806    -0.00100
C1569       C  0.95016815  0.61248914  0.85710015     0.01400
C1570       C  0.91150877  0.61466360  0.85818961     0.04200
C1571       C  0.87145511  0.57670234  0.86123302    -0.11900
C1572       C  0.86927824  0.53593155  0.86218394     0.23500
C1573       C  0.90788067  0.53370981  0.86150504    -0.12400
C1574       C  0.94841111  0.57210472  0.85930913     0.04900
C1575       C  0.82599885  0.49537050  0.86221545     0.27300
C1576       C  0.80914425  0.47071038  0.87572210    -0.13100
C1577       C  0.76781557  0.43246455  0.87555020     0.05400
C1578       C  0.74268680  0.41952846  0.86195446    -0.09100
C1579       C  0.75919227  0.44512620  0.84857247     0.06200
C1580       C  0.80108885  0.48226964  0.84861405    -0.13500
Br1581     Br  0.90491054  0.47779723  0.86279267    -0.05500
Br1582     Br  0.91217247  0.66856701  0.85396239     0.00100
Br1583     Br  0.74672593  0.39722347  0.89383582     0.00500
Br1584     Br  0.82448124  0.51534083  0.82992936    -0.03900
Br1585     Br  0.00139679  0.56923511  0.85920923     0.00600
Br1586     Br  0.81886366  0.57999282  0.86335883    -0.03200
Br1587     Br  0.84261871  0.48958054  0.89446782    -0.04000
Br1588     Br  0.72368257  0.43146883  0.83033714    -0.00100
C1589       C  0.15164603  0.63558621  0.75266596     0.01400
C1590       C  0.15148640  0.67543904  0.75227395     0.04200
C1591       C  0.13739245  0.68910294  0.76513296    -0.11900
C1592       C  0.12044488  0.66162379  0.77801461     0.23500
C1593       C  0.11869333  0.62093544  0.77814047    -0.12400
C1594       C  0.13543668  0.60851752  0.76572787     0.04900
C1595       C  0.10354831  0.67468540  0.79138388     0.27300
C1596       C  0.12800342  0.68854440  0.80507959    -0.13100
C1597       C  0.10955136  0.69501859  0.81840580     0.05400
C1598       C  0.06690299  0.68877656  0.81798407    -0.09100
C1599       C  0.04369691  0.67786419  0.80399712     0.06200
C1600       C  0.06167905  0.67014942  0.79078773    -0.13500
Br1601     Br  0.09231245  0.58168852  0.79525246    -0.05500
Br1602     Br  0.16678413  0.70965802  0.73370614     0.00100
Br1603     Br  0.14183159  0.70959166  0.83743965     0.00500
Br1604     Br  0.02813929  0.65131223  0.77203664    -0.03900
Br1605     Br  0.13752379  0.55510011  0.76703043     0.00600
Br1606     Br  0.14110321  0.74540717  0.76511573    -0.03200
Br1607     Br  0.18627636  0.69702131  0.80566207    -0.04000
Br1608     Br  0.98736607  0.67382340  0.80291209    -0.00100
C1609       C  0.42392242  0.18053577  0.30368834     0.01400
C1610       C  0.44165410  0.18187553  0.28913626     0.04200
C1611       C  0.41401120  0.16451313  0.27632634    -0.11900
C1612       C  0.36904672  0.15048250  0.27765879     0.23500
C1613       C  0.35198952  0.15253259  0.29206800    -0.12400
C1614       C  0.37883600  0.16494263  0.30518513     0.04900
C1615       C  0.34021567  0.13382420  0.26389670     0.27300
C1616       C  0.34672679  0.16220837  0.25156691    -0.13100
C1617       C  0.32590551  0.14515316  0.23740039     0.05400
C1618       C  0.29456660  0.10009642  0.23601295    -0.09100
C1619       C  0.28319093  0.07326320  0.24915103     0.06200
C1620       C  0.30785421  0.08923615  0.26269791    -0.13500
Br1621     Br  0.29239732  0.13987617  0.29377789    -0.05500
Br1622     Br  0.50413497  0.20981793  0.28661892     0.00100
Br1623     Br  0.34395040  0.18348072  0.21982804     0.00500
Br1624     Br  0.29917544  0.04899519  0.27907775    -0.03900
Br1625     Br  0.35335684  0.15796171  0.32523010     0.00600
Br1626     Br  0.43799420  0.15928829  0.25707382    -0.03200
Br1627     Br  0.38540137  0.22446628  0.25401518    -0.04000
Br1628     Br  0.23291746  0.01491577  0.24875922    -0.00100
C1629       C  0.24019875  0.77086514  0.19374610     0.01400
C1630       C  0.22484650  0.78442717  0.20628265     0.04200
C1631       C  0.23444940  0.82804682  0.20733670    -0.11900
C1632       C  0.25589831  0.85731319  0.19515653     0.23500
C1633       C  0.27029402  0.84349189  0.18240303    -0.12400
C1634       C  0.26358491  0.80076802  0.18192087     0.04900
C1635       C  0.26055110  0.90147395  0.19537360     0.27300
C1636       C  0.22364779  0.90567188  0.19259583    -0.13100
C1637       C  0.22630719  0.94643738  0.19438167    -0.01200
C1638       C  0.26693612  0.98416042  0.19771985    -0.09100
C1639       C  0.30466672  0.98041077  0.19918467     0.06200
C1640       C  0.30114987  0.93896806  0.19862845    -0.13500
Br1641     Br  0.29914214  0.88313878  0.16559340    -0.05500
Br1642     Br  0.18776517  0.74232495  0.22138549     0.00100
Br1643     Br  0.17315198  0.94909963  0.19350583     0.00500
Br1644     Br  0.35154130  0.93328348  0.20287440    -0.03900
Br1645     Br  0.28819529  0.78408604  0.16538642     0.00600
Br1646     Br  0.21929695  0.84810718  0.22565026    -0.03200
Br1647     Br  0.16916715  0.85514712  0.18644057    -0.04000
Br1648     Br  0.36140795  0.03212063  0.20154500    -0.00100
C1649       C  0.15099241  0.06639757  0.15013398     0.01400
C1650       C  0.16059713  0.08522005  0.13533162     0.04200
C1651       C  0.13018573  0.06611683  0.12335541    -0.11900
C1652       C  0.09119291  0.02627500  0.12571938     0.23500
C1653       C  0.08286754  0.00544102  0.14008083    -0.12400
C1654       C  0.11242394  0.02552769  0.15232976     0.04900
C1655       C  0.05952734  0.00597061  0.11293052     0.27300
C1656       C  0.02173299  0.00961606  0.11233100    -0.13100
C1657       C  0.99246552  0.99150865  0.09992666     0.05400
C1658       C  0.00176310  0.97101038  0.08772716    -0.09100
C1659       C  0.04031915  0.96846714  0.08826520     0.06200
C1660       C  0.06829004  0.98462547  0.10102485    -0.13500
Br1661     Br  0.03026986  0.94965903  0.14292289    -0.05500
Br1662     Br  0.21670256  0.13572408  0.13100886     0.00100
Br1663     Br  0.93945312  0.99450998  0.09996511     0.00500
Br1664     Br  0.11938944  0.97838898  0.10210729    -0.03900
Br1665     Br  0.09879379  0.99701542  0.17204192     0.00600
Br1666     Br  0.14138993  0.09520681  0.10374352    -0.03200
Br1667     Br  0.01070199  0.04037259  0.12840969    -0.04000
Br1668     Br  0.05815709  0.94768519  0.07089137    -0.00100
C1669       C  0.22747144  0.40642094  0.18862621     0.01400
C1670       C  0.19276329  0.36884179  0.18134242     0.04200
C1671       C  0.19389640  0.32971291  0.18040651    -0.11900
C1672       C  0.22953121  0.32748473  0.18637635     0.23500
C1673       C  0.26475525  0.36467323  0.19306637    -0.12400
C1674       C  0.26433046  0.40424327  0.19392811     0.04900
C1675       C  0.23019431  0.28601946  0.18507044     0.27300
C1676       C  0.20995402  0.25350092  0.19637480    -0.13100
C1677       C  0.20562892  0.21208920  0.19416506     0.05400
C1678       C  0.22358988  0.20389491  0.18100512    -0.09100
C1679       C  0.24695812  0.23771999  0.17036237     0.06200
C1680       C  0.24856516  0.27800989  0.17202446    -0.13500
Br1681     Br  0.31368763  0.36095421  0.20101709    -0.05500
Br1682     Br  0.14320437  0.36907645  0.17207448     0.00100
Br1683     Br  0.17350294  0.16612204  0.20883355     0.00500
Br1684     Br  0.27375001  0.32138784  0.15604436    -0.03900
Br1685     Br  0.31681799  0.45585788  0.20092823     0.00600
Br1686     Br  0.14639555  0.27831910  0.17086582    -0.03200
Br1687     Br  0.18694505  0.26552154  0.21460267    -0.04000
Br1688     Br  0.27876856  0.22979788  0.15398646    -0.00100
C1689       C  0.17024903  0.86081693  0.34909353     0.01400
C1690       C  0.18967448  0.87063227  0.36380979     0.04200
C1691       C  0.22806322  0.91087711  0.36653558    -0.11900
C1692       C  0.24732000  0.94150015  0.35460480     0.23500
C1693       C  0.22740843  0.93226076  0.34001951    -0.12400
C1694       C  0.18860271  0.89231948  0.33733490     0.04900
C1695       C  0.28940039  0.98271813  0.35722259     0.27300
C1696       C  0.28973646  0.02144464  0.36122991    -0.13100
C1697       C  0.32963419  0.06110890  0.36258209     0.05400
C1698       C  0.36968365  0.06181506  0.36072130    -0.09100
C1699       C  0.36914678  0.02222482  0.35771141     0.06200
C1700       C  0.32914242  0.98309739  0.35560608    -0.13500
Br1701     Br  0.25448184  0.97371552  0.32356269    -0.05500
Br1702     Br  0.16497894  0.82832245  0.38015043     0.00100
Br1703     Br  0.32857785  0.11452501  0.36600664     0.00500
Br1704     Br  0.32846178  0.92967791  0.35044318    -0.03900
Br1705     Br  0.15986501  0.88123754  0.31767521     0.00600
Br1706     Br  0.25555287  0.92364043  0.38645906    -0.03200
Br1707     Br  0.23528796  0.01986338  0.36498336    -0.04000
Br1708     Br  0.42287148  0.02060768  0.35726647    -0.00100
C1709       C  0.17675255  0.64731601  0.25543894     0.01400
C1710       C  0.14120418  0.61604597  0.26455341     0.04200
C1711       C  0.12802776  0.62915937  0.27785024    -0.11900
C1712       C  0.15009587  0.67307627  0.28253966     0.23500
C1713       C  0.18662348  0.70395764  0.27420703    -0.12400
C1714       C  0.20062332  0.69138383  0.26095385     0.04900
C1715       C  0.13406404  0.68712188  0.29601320     0.27300
C1716       C  0.10300812  0.70040943  0.29384371    -0.13100
C1717       C  0.09031087  0.71713077  0.30624466     0.05400
C1718       C  0.10777063  0.71967447  0.32100347    -0.09100
C1719       C  0.13640211  0.70341205  0.32338406     0.06200
C1720       C  0.15006865  0.68781919  0.31089426    -0.13500
Br1721     Br  0.21691224  0.76421561  0.28099444    -0.05500
Br1722     Br  0.11113503  0.55404162  0.26008184     0.00100
Br1723     Br  0.05087570  0.73891655  0.30282664     0.00500
Br1724     Br  0.19177922  0.66875328  0.31402852    -0.03900
Br1725     Br  0.25339533  0.73613937  0.25117608     0.00600
Br1726     Br  0.07897686  0.58696773  0.28983397    -0.03200
Br1727     Br  0.07891726  0.69677836  0.27368983    -0.04000
Br1728     Br  0.15677293  0.70270885  0.34383220    -0.00100
C1729       C  0.97914248  0.78357991  0.39521788     0.01400
C1730       C  0.96664086  0.81559581  0.39505258     0.04200
C1731       C  0.96407089  0.83474924  0.40891269    -0.11900
C1732       C  0.97255595  0.82074248  0.42296312     0.23500
C1733       C  0.98762332  0.79072587  0.42300762    -0.12400
C1734       C  0.99144836  0.77260947  0.40915417     0.04900
C1735       C  0.96014122  0.83251713  0.43772956     0.27300
C1736       C  0.99196707  0.86488729  0.44725543    -0.13100
C1737       C  0.98080834  0.87181938  0.46207855     0.05400
C1738       C  0.93640158  0.84949479  0.46698553    -0.09100
C1739       C  0.90474749  0.81544607  0.45744176     0.06200
C1740       C  0.91692676  0.80717982  0.44297956    -0.13500
Br1741     Br  0.00048131  0.77247297  0.44220801    -0.05500
Br1742     Br  0.95210092  0.83219097  0.37587686     0.00100
Br1743     Br  0.02820342  0.90789277  0.47597439     0.00500
Br1744     Br  0.87448560  0.76016529  0.43017902    -0.03900
Br1745     Br  0.01157554  0.73105997  0.40939121     0.00600
Br1746     Br  0.94788066  0.87923445  0.40881725    -0.03200
Br1747     Br  0.05119061  0.89947812  0.43990508    -0.04000
Br1748     Br  0.84454618  0.77791255  0.46361749    -0.00100
C1749       C  0.89587567  0.64995907  0.36367067     0.01400
C1750       C  0.88017145  0.63238480  0.34885172     0.04200
C1751       C  0.84429684  0.58949187  0.34715429    -0.11900
C1752       C  0.82031712  0.56565764  0.36008872     0.23500
C1753       C  0.83279611  0.58491365  0.37471959    -0.12400
C1754       C  0.87185515  0.62512597  0.37665871     0.04900
C1755       C  0.78423454  0.51917545  0.35866138     0.27300
C1756       C  0.74328155  0.50855314  0.35235287    -0.13100
C1757       C  0.70937088  0.46449947  0.35156252     0.05400
C1758       C  0.71501768  0.43129444  0.35817382    -0.09100
C1759       C  0.75549780  0.44192141  0.36467832     0.06200
C1760       C  0.79049840  0.48533205  0.36434899    -0.13500
Br1761     Br  0.79622398  0.55544751  0.39222785    -0.05500
Br1762     Br  0.90544253  0.66728304  0.33069559     0.00100
Br1763     Br  0.65527771  0.44947876  0.34129203     0.00500
Br1764     Br  0.84713803  0.49842415  0.37181631    -0.03900
Br1765     Br  0.89342547  0.64237154  0.39738022     0.00600
Br1766     Br  0.82902972  0.56262786  0.32711810    -0.03200
Br1767     Br  0.73281800  0.55429451  0.34548084    -0.04000
Br1768     Br  0.76214263  0.39720735  0.37478657    -0.00100
C1769       C  0.25245728  0.29847082  0.03688161     0.01400
C1770       C  0.25506999  0.26117469  0.04072974     0.04200
C1771       C  0.21881474  0.21917410  0.03836230    -0.11900
C1772       C  0.17864783  0.21437115  0.03347674     0.23500
C1773       C  0.17567209  0.25171601  0.03009265    -0.12400
C1774       C  0.21300230  0.29347164  0.03107885     0.04900
C1775       C  0.13909712  0.17030297  0.03243265     0.27300
C1776       C  0.12138650  0.15182359  0.01801678    -0.13100
C1777       C  0.08165655  0.11190706  0.01708544     0.05400
C1778       C  0.06104611  0.08847731  0.03060266    -0.09100
C1779       C  0.08027598  0.10624860  0.04503670     0.06200
C1780       C  0.11819516  0.14766159  0.04592753    -0.13500
Br1781     Br  0.12009134  0.24580721  0.02457557    -0.05500
Br1782     Br  0.30741879  0.26757582  0.05004532     0.00100
Br1783     Br  0.05432378  0.09181441  0.99725324     0.00500
Br1784     Br  0.14102395  0.17406132  0.06572676    -0.03900
Br1785     Br  0.21038208  0.34339667  0.02369736     0.00600
Br1786     Br  0.22412694  0.16818515  0.04177812    -0.03200
Br1787     Br  0.15164528  0.18153639  0.99950977    -0.04000
Br1788     Br  0.05666224  0.07367394  0.06376922    -0.00100
C1789       C  0.27925074  0.52647879  0.13186857     0.01400
C1790       C  0.29647194  0.55490118  0.11913164     0.04200
C1791       C  0.30770037  0.54086907  0.10560611    -0.11900
C1792       C  0.30033604  0.49791782  0.10447984     0.23500
C1793       C  0.28272955  0.46941743  0.11708816    -0.12400
C1794       C  0.27304381  0.48383694  0.13079666     0.04900
C1795       C  0.31015664  0.48205093  0.09000507     0.27300
C1796       C  0.28106543  0.46942391  0.07750045    -0.13100
C1797       C  0.28868643  0.45149720  0.06424043     0.05400
C1798       C  0.32311926  0.44224566  0.06388241    -0.09100
C1799       C  0.35283013  0.45582627  0.07630654     0.06200
C1800       C  0.34713051  0.47700507  0.08906625    -0.13500
Br1801     Br  0.27134928  0.41011468  0.11549452    -0.05500
Br1802     Br  0.30239897  0.61221499  0.11972082     0.00100
Br1803     Br  0.25256939  0.44090692  0.04641154     0.00500
Br1804     Br  0.38905154  0.49779931  0.10561474    -0.03900
Br1805     Br  0.25342345  0.44538173  0.14830879     0.00600
Br1806     Br  0.33330215  0.58041296  0.08854692    -0.03200
Br1807     Br  0.22916738  0.47410364  0.07892384    -0.04000
Br1808     Br  0.39939007  0.44249456  0.07657823    -0.00100
C1809       C  0.49565998  0.30289359  0.91788931     0.01400
C1810       C  0.47106958  0.27167304  0.92934671     0.04200
C1811       C  0.45736781  0.28434849  0.94261420    -0.11900
C1812       C  0.47039252  0.32864878  0.94508507     0.23500
C1813       C  0.49582097  0.35995198  0.93391656    -0.12400
C1814       C  0.50715900  0.34705916  0.92018983     0.04900
C1815       C  0.45865002  0.34296067  0.95955662     0.27300
C1816       C  0.42691008  0.35594486  0.95943313    -0.13100
C1817       C  0.42062363  0.37570287  0.97252340     0.05400
C1818       C  0.44451566  0.38057718  0.98607156    -0.09100
C1819       C  0.47258946  0.36307759  0.98662349     0.06200
C1820       C  0.48109053  0.34612182  0.97328772    -0.13500
Br1821     Br  0.51612187  0.42106856  0.93763711    -0.05500
Br1822     Br  0.45848174  0.21195299  0.92769899     0.00100
Br1823     Br  0.38061791  0.39756023  0.97163421     0.00500
Br1824     Br  0.52531893  0.32947914  0.97365400    -0.03900
Br1825     Br  0.53654102  0.39027063  0.90433880     0.00600
Br1826     Br  0.42069542  0.24099342  0.95750510    -0.03200
Br1827     Br  0.39295847  0.34758630  0.94112045    -0.04000
Br1828     Br  0.49769738  0.36018137  0.00587899    -0.00100
C1829       C  0.52057307  0.51222191  0.02026208     0.01400
C1830       C  0.56295424  0.51759586  0.02078983     0.04200
C1831       C  0.59991302  0.55953923  0.02249720    -0.11900
C1832       C  0.59479485  0.59612347  0.02475310     0.23500
C1833       C  0.55256802  0.59053396  0.02548146    -0.12400
C1834       C  0.51565548  0.54914680  0.02276241     0.04900
C1835       C  0.63377003  0.64068324  0.02588049     0.27300
C1836       C  0.65934502  0.65414561  0.03934724    -0.13100
C1837       C  0.69743382  0.69560752  0.04001782     0.05400
C1838       C  0.70863604  0.72470486  0.02754789    -0.09100
C1839       C  0.68095755  0.71252377  0.01467241     0.06200
C1840       C  0.64492962  0.66995770  0.01348629    -0.13500
Br1841     Br  0.54554120  0.64004034  0.03016724    -0.05500
Br1842     Br  0.57097416  0.46766095  0.02009468     0.00100
Br1843     Br  0.73466925  0.71181891  0.05785974     0.00500
Br1844     Br  0.61148157  0.65157705  0.99471471    -0.03900
Br1845     Br  0.45900477  0.54464987  0.02160182     0.00600
Br1846     Br  0.65783563  0.56712517  0.02143367    -0.03200
Br1847     Br  0.64192810  0.61582383  0.05688573    -0.04000
Br1848     Br  0.68971068  0.75562359  0.99946863    -0.00100
C1849       C  0.10186570  0.51559909  0.63367949     0.01400
C1850       C  0.07214654  0.47085335  0.63034745     0.04200
C1851       C  0.04901882  0.45892096  0.61638836    -0.11900
C1852       C  0.05494047  0.49118304  0.60571476     0.23500
C1853       C  0.08480114  0.53536349  0.60873283    -0.12400
C1854       C  0.10902810  0.54756380  0.62244083     0.04900
C1855       C  0.02972316  0.47825254  0.59122528     0.27300
C1856       C  0.04744787  0.47033017  0.57799358    -0.13100
C1857       C  0.02150076  0.45289668  0.56479059     0.05400
C1858       C  0.97774636  0.44365806  0.56476772    -0.09100
C1859       C  0.96076850  0.45350386  0.57789063     0.06200
C1860       C  0.98697682  0.47126200  0.59100499    -0.13500
Br1861     Br  0.09240524  0.57905186  0.59386497    -0.05500
Br1862     Br  0.06215675  0.42477359  0.64450272     0.00100
Br1863     Br  0.04567688  0.44038928  0.54695090     0.00500
Br1864     Br  0.96408703  0.48470626  0.60899229    -0.03900
Br1865     Br  0.15493364  0.60774375  0.62465499     0.00600
Br1866     Br  0.00888443  0.39806639  0.61169855    -0.03200
Br1867     Br  0.10701283  0.48239115  0.57820471    -0.04000
Br1868     Br  0.90030384  0.43863278  0.57870351    -0.00100
C1869       C  0.89790881  0.30256484  0.53706190     0.01400
C1870       C  0.89210407  0.27507236  0.54972918     0.04200
C1871       C  0.89007029  0.23475617  0.54743221    -0.11900
C1872       C  0.89369830  0.22148918  0.53256155     0.23500
C1873       C  0.89898430  0.24834352  0.51991355    -0.12400
C1874       C  0.90095011  0.28871142  0.52210202     0.04900
C1875       C  0.89241411  0.17933818  0.53029579     0.27300
C1876       C  0.93155152  0.17817328  0.53003536    -0.13100
C1877       C  0.93036084  0.13809159  0.52817667     0.05400
C1878       C  0.88982865  0.09873725  0.52691905    -0.09100
C1879       C  0.85061305  0.10003088  0.52752692     0.06200
C1880       C  0.85198626  0.14031174  0.52899386    -0.13500
Br1881     Br  0.90517703  0.23022102  0.49962985    -0.05500
Br1882     Br  0.88659117  0.29184216  0.57037249     0.00100
Br1883     Br  0.98459024  0.13756235  0.52715436     0.00500
Br1884     Br  0.79850195  0.14227711  0.52976461    -0.03900
Br1885     Br  0.91085668  0.32584280  0.50455109     0.00600
Br1886     Br  0.88329042  0.19771991  0.56469651    -0.03200
Br1887     Br  0.98671912  0.23159657  0.53271103    -0.04000
Br1888     Br  0.79484447  0.04671368  0.52781886    -0.00100
C1889       C  0.86746407  0.73062412  0.52958966     0.01400
C1890       C  0.85303210  0.70553573  0.54317141     0.04200
C1891       C  0.84976477  0.66420994  0.54381673    -0.11900
C1892       C  0.85948690  0.64716024  0.53076234     0.23500
C1893       C  0.87334949  0.67191295  0.51716289    -0.12400
C1894       C  0.87789851  0.71370251  0.51662335     0.04900
C1895       C  0.85446432  0.60287876  0.53102978     0.27300
C1896       C  0.89174811  0.59839544  0.53164650    -0.13100
C1897       C  0.88793592  0.55743260  0.52884683     0.05400
C1898       C  0.84612189  0.51975500  0.52698676    -0.09100
C1899       C  0.80853553  0.52388972  0.52796323     0.06200
C1900       C  0.81285579  0.56554836  0.52912509    -0.13500
Br1901     Br  0.88573720  0.64816040  0.49915176    -0.05500
Br1902     Br  0.83504518  0.72628060  0.56063070     0.00100
Br1903     Br  0.94061725  0.55476191  0.52583665     0.00500
Br1904     Br  0.76215071  0.57191867  0.52681358    -0.03900
Br1905     Br  0.90032180  0.74826519  0.49822328     0.00600
Br1906     Br  0.83208812  0.63084896  0.56256805    -0.03200
Br1907     Br  0.94836055  0.64915327  0.53548834    -0.04000
Br1908     Br  0.75098097  0.47257334  0.52787907    -0.00100
C1909       C  0.79883120  0.40012878  0.48814602     0.01400
C1910       C  0.80528817  0.42539404  0.47477308     0.04200
C1911       C  0.77861958  0.40638631  0.46178022    -0.11900
C1912       C  0.74803119  0.36124703  0.46145977     0.23500
C1913       C  0.74354213  0.33537250  0.47434225    -0.12400
C1914       C  0.76728019  0.35493708  0.48785882     0.04900
C1915       C  0.71961319  0.34123956  0.44775722     0.27300
C1916       C  0.67600403  0.33214221  0.44793352    -0.13100
C1917       C  0.64941707  0.31445938  0.43484837     0.05400
C1918       C  0.66627385  0.30587483  0.42145626    -0.09100
C1919       C  0.70939514  0.31344522  0.42148185     0.06200
C1920       C  0.73611320  0.33149728  0.43454471    -0.13500
Br1921     Br  0.70426095  0.27295635  0.47342967    -0.05500
Br1922     Br  0.85167282  0.48574665  0.47380098     0.00100
Br1923     Br  0.58922348  0.30037381  0.43550381     0.00500
Br1924     Br  0.79571751  0.34377215  0.43431082    -0.03900
Br1925     Br  0.75313252  0.31996354  0.50622690     0.00600
Br1926     Br  0.78286051  0.44243727  0.44452572    -0.03200
Br1927     Br  0.65297855  0.34474067  0.46607124    -0.04000
Br1928     Br  0.73241167  0.30033361  0.40348106    -0.00100
C1929       C  0.58694528  0.63937291  0.86524782     0.01400
C1930       C  0.56919070  0.60762467  0.87699388     0.04200
C1931       C  0.56838448  0.56776802  0.87537540    -0.11900
C1932       C  0.58203465  0.55778794  0.86155882     0.23500
C1933       C  0.59748438  0.58827231  0.84946454    -0.12400
C1934       C  0.60113428  0.62952071  0.85144156     0.04900
C1935       C  0.57945906  0.51484666  0.85985977     0.27300
C1936       C  0.61722162  0.51153338  0.86163851    -0.13100
C1937       C  0.61409058  0.47030931  0.86105742     0.05400
C1938       C  0.57278854  0.43200194  0.85953293    -0.09100
C1939       C  0.53499763  0.43549301  0.85788997     0.06200
C1940       C  0.53858693  0.47687790  0.85753584    -0.13500
Br1941     Br  0.61358767  0.57323258  0.83023145    -0.05500
Br1942     Br  0.54392045  0.61752643  0.89513252     0.00100
Br1943     Br  0.66676971  0.46690999  0.86174133     0.00500
Br1944     Br  0.48741017  0.48178915  0.85401809    -0.03900
Br1945     Br  0.62761506  0.67289063  0.83551373     0.00600
Br1946     Br  0.54940067  0.52699151  0.89226438    -0.03200
Br1947     Br  0.67306698  0.56349533  0.86525329    -0.04000
Br1948     Br  0.47774710  0.38373436  0.85736471    -0.00100
C1949       C  0.64306880  0.77037753  0.89845037     0.01400
C1950       C  0.68902867  0.79254398  0.89794763     0.04200
C1951       C  0.71332723  0.80901502  0.91150572    -0.11900
C1952       C  0.69173730  0.80488033  0.92550454     0.23500
C1953       C  0.64595178  0.78588313  0.92580447    -0.12400
C1954       C  0.62151277  0.76811482  0.91230129     0.04900
C1955       C  0.71719759  0.81841478  0.93997220     0.27300
C1956       C  0.72338156  0.78793290  0.94820134    -0.13100
C1957       C  0.75003097  0.80084527  0.96138743     0.05400
C1958       C  0.76991582  0.84496180  0.96685403    -0.09100
C1959       C  0.76416249  0.87570021  0.95800821     0.06200
C1960       C  0.73737181  0.86203600  0.94485664    -0.13500
Br1961     Br  0.61698533  0.78319293  0.94483598    -0.05500
Br1962     Br  0.71849972  0.80036635  0.87859795     0.00100
Br1963     Br  0.75916745  0.75648965  0.97084012     0.00500
Br1964     Br  0.72815225  0.90308540  0.93315780    -0.03900
Br1965     Br  0.55858495  0.73896723  0.91290922     0.00600
Br1966     Br  0.77608988  0.83563073  0.91105291    -0.03200
Br1967     Br  0.69487859  0.72791809  0.94108940    -0.04000
Br1968     Br  0.79522988  0.93785667  0.96239671    -0.00100
C1969       C  0.47224785  0.72644016  0.81902153     0.01400
C1970       C  0.48431442  0.70870838  0.80671541     0.04200
C1971       C  0.45505621  0.68787145  0.79450582    -0.11900
C1972       C  0.41468140  0.68659643  0.79421916     0.23500
C1973       C  0.40248981  0.70399247  0.80650865    -0.12400
C1974       C  0.43064680  0.72275282  0.81908487     0.04900
C1975       C  0.38682187  0.67106157  0.78037310     0.27300
C1976       C  0.39601783  0.69999591  0.76804580    -0.13100
C1977       C  0.36888672  0.68641149  0.75504694     0.05400
C1978       C  0.33194841  0.64379585  0.75442645    -0.09100
C1979       C  0.32074299  0.61658485  0.76741374     0.06200
C1980       C  0.34914230  0.62932347  0.78007141    -0.13500
Br1981     Br  0.34836261  0.70471431  0.80557499    -0.05500
Br1982     Br  0.54220944  0.71629901  0.80580776     0.00100
Br1983     Br  0.38216177  0.72745801  0.73857321     0.00500
Br1984     Br  0.33625072  0.59003459  0.79711253    -0.03900
Br1985     Br  0.41203319  0.74357441  0.83634500     0.00600
Br1986     Br  0.47086146  0.66288587  0.77774745    -0.03200
Br1987     Br  0.44535020  0.75884077  0.76925898    -0.04000
Br1988     Br  0.26334522  0.56575782  0.76896039    -0.00100
C1989       C  0.56180817  0.06913075  0.85404071     0.01400
C1990       C  0.59053016  0.06254200  0.86380651     0.04200
C1991       C  0.59116115  0.02309381  0.86317618    -0.11900
C1992       C  0.56442026  0.99035549  0.85273385     0.23500
C1993       C  0.53758061  0.99693062  0.84258269    -0.12400
C1994       C  0.53702897  0.03637264  0.84279902     0.04900
C1995       C  0.56486652  0.94886125  0.85198962     0.27300
C1996       C  0.59135838  0.94374122  0.84109650    -0.13100
C1997       C  0.58653289  0.90229310  0.83860479     0.05400
C1998       C  0.55569645  0.86626098  0.84716186    -0.09100
C1999       C  0.53057225  0.87180072  0.85852191     0.06200
C2000       C  0.53529051  0.91316141  0.86097567    -0.13500
Br2001     Br  0.50100988  0.95073163  0.82834249    -0.05500
Br2002     Br  0.63278443  0.10746344  0.87738089     0.00100
Br2003     Br  0.62079761  0.89431053  0.82314195     0.00500
Br2004     Br  0.50011413  0.92081350  0.87618822    -0.03900
Br2005     Br  0.50382913  0.04389618  0.82660446     0.00600
Br2006     Br  0.62877350  0.01318472  0.87661881    -0.03200
Br2007     Br  0.63302296  0.99333886  0.82927863    -0.04000
Br2008     Br  0.48797368  0.82216803  0.87013606    -0.00100
C2009       C  0.85790885  0.18110052  0.69013850     0.01400
C2010       C  0.85229605  0.21547182  0.69590583     0.04200
C2011       C  0.88896145  0.25720764  0.69832703    -0.11900
C2012       C  0.93038918  0.26643470  0.69313630     0.23500
C2013       C  0.93583983  0.23281370  0.68692295    -0.12400
C2014       C  0.90060435  0.18981280  0.68668774     0.04900
C2015       C  0.96833662  0.31133051  0.69425091     0.27300
C2016       C  0.97061723  0.34482670  0.68483594    -0.13100
C2017       C  0.00630831  0.38748914  0.68616103     0.05400
C2018       C  0.04198856  0.39550664  0.69546169    -0.09100
C2019       C  0.04018894  0.36212050  0.70469724     0.06200
C2020       C  0.00262618  0.32048120  0.70456780    -0.13500
Br2021     Br  0.99117043  0.24584734  0.67808560    -0.05500
Br2022     Br  0.79499843  0.20779194  0.69940104     0.00100
Br2023     Br  0.00538242  0.43540819  0.67602837     0.00500
Br2024     Br  0.99836804  0.27601537  0.71844037    -0.03900
Br2025     Br  0.91241480  0.14314472  0.68279080     0.00600
Br2026     Br  0.88261539  0.30201602  0.70868760    -0.03200
Br2027     Br  0.92624552  0.33201779  0.66957497    -0.04000
Br2028     Br  0.08959859  0.37333086  0.71726552    -0.00100
C2029       C  0.82528651  0.98546268  0.58329926     0.01400
C2030       C  0.83798689  0.03019498  0.58472177     0.04200
C2031       C  0.82756506  0.04532656  0.59807759    -0.11900
C2032       C  0.80230517  0.01558019  0.60961318     0.23500
C2033       C  0.78692370  0.97069111  0.60776258    -0.12400
C2034       C  0.79950175  0.95572704  0.59492995     0.04900
C2035       C  0.79596123  0.03152432  0.62449880     0.27300
C2036       C  0.82238248  0.03416071  0.63696993    -0.13100
C2037       C  0.81388729  0.04457646  0.65157242     0.05400
C2038       C  0.78276412  0.05786223  0.65342947    -0.09100
C2039       C  0.75661348  0.05583132  0.64091869     0.06200
C2040       C  0.76220347  0.04111578  0.62655118    -0.13500
Br2041     Br  0.74986337  0.92997153  0.62328659    -0.05500
Br2042     Br  0.86838569  0.07105951  0.56835424     0.00100
Br2043     Br  0.84229836  0.03706432  0.66918152     0.00500
Br2044     Br  0.72379955  0.03380659  0.60972128    -0.03900
Br2045     Br  0.78433400  0.89506230  0.59438388     0.00600
Br2046     Br  0.84932812  0.10702043  0.60093701    -0.03200
Br2047     Br  0.87089431  0.02442922  0.63394161    -0.04000
Br2048     Br  0.71389934  0.07386147  0.64341062    -0.00100
C2049       C  0.60218921  0.94898626  0.70860200     0.01400
C2050       C  0.58086924  0.92097505  0.72115704     0.04200
C2051       C  0.54117606  0.88153834  0.71893842    -0.11900
C2052       C  0.52379959  0.86845944  0.70405764     0.23500
C2053       C  0.54691581  0.89433319  0.69137536    -0.12400
C2054       C  0.58526734  0.93492636  0.69360386     0.04900
C2055       C  0.48033892  0.82857924  0.70173226     0.27300
C2056       C  0.47538993  0.78666088  0.70321708    -0.13100
C2057       C  0.43371978  0.74923012  0.70184958     0.05400
C2058       C  0.39769428  0.75329655  0.69728856    -0.09100
C2059       C  0.40314836  0.79507466  0.69492630     0.06200
C2060       C  0.44379587  0.83263917  0.69789269    -0.13500
Br2061     Br  0.52494344  0.87443952  0.67088501    -0.05500
Br2062     Br  0.60632127  0.93585736  0.74142018     0.00100
Br2063     Br  0.42545203  0.69300889  0.70770724     0.00500
Br2064     Br  0.44915975  0.88963468  0.69697964    -0.03900
Br2065     Br  0.61170790  0.97200933  0.67595079     0.00600
Br2066     Br  0.50948121  0.84632582  0.73638766    -0.03200
Br2067     Br  0.52575495  0.78048190  0.70686282    -0.04000
Br2068     Br  0.35558268  0.80071423  0.68683049    -0.00100
C2069       C  0.65828579  0.09737828  0.73234697     0.01400
C2070       C  0.61783527  0.09618643  0.73354448     0.04200
C2071       C  0.61024318  0.11734318  0.74583680    -0.11900
C2072       C  0.64443431  0.14393048  0.75597852     0.23500
C2073       C  0.68644069  0.15014206  0.75352567    -0.12400
C2074       C  0.69296016  0.12527867  0.74233732     0.04900
C2075       C  0.63522341  0.16090245  0.77024778     0.27300
C2076       C  0.62879514  0.19712082  0.76991455    -0.13100
C2077       C  0.61763509  0.21095723  0.78347384     0.05400
C2078       C  0.61592039  0.19063364  0.79755650    -0.09100
C2079       C  0.62281016  0.15476996  0.79788739     0.06200
C2080       C  0.63159156  0.13942615  0.78425087    -0.13500
Br2081     Br  0.73456307  0.19155779  0.76608489    -0.05500
Br2082     Br  0.57312037  0.06722742  0.71810301     0.00100
Br2083     Br  0.60014433  0.25439390  0.78250583     0.00500
Br2084     Br  0.63705917  0.08780396  0.78467079    -0.03900
Br2085     Br  0.74837862  0.12693106  0.74214782     0.00600
Br2086     Br  0.55221483  0.10758238  0.74937936    -0.03200
Br2087     Br  0.63478478  0.22730863  0.75088066    -0.04000
Br2088     Br  0.61949686  0.12607339  0.81703878    -0.00100
loop_ 
_geom_bond_atom_site_label_1 
_geom_bond_atom_site_label_2 
_geom_bond_distance 
_geom_bond_site_symmetry_2 
_ccdc_geom_bond_type 
C1            C2   1.400       .  A
C1            C6   1.405       .  A
C1         C2069   1.495       .  S
C2            C3   1.407       .  A
C2            H7   1.081       .  S
C3            C4   1.408       .  A
C3           C14   1.490       .  S
C4            C5   1.406   1_545  A
C4            H8   1.082   1_545  S
C5            C6   1.406   1_565  A
C5         C2049   1.494       .  S
C6            H9   1.083       .  S
C10          C11   1.397       .  A
C10          C15   1.400       .  A
C10        C2038   1.475       .  S
C11          C12   1.401       .  A
C11          H16   1.084       .  S
C12          C13   1.403       .  A
C12        C2009   1.491       .  S
C13          C14   1.411       .  A
C13          H17   1.082       .  S
C14          C15   1.409       .  A
C15          H18   1.082       .  S
C19          C20   1.398       .  A
C19          C24   1.405       .  A
C19        C1969   1.480       .  S
C20          C21   1.392       .  A
C20          H25   1.084       .  S
C21          C22   1.396       .  A
C21        C1998   1.472       .  S
C22          C23   1.413       .  A
C22          H26   1.079       .  S
C23          C24   1.415       .  A
C23          C32   1.504       .  S
C24          H27   1.080       .  S
C28          C29   1.394       .  A
C28          C33   1.397       .  A
C28        C1949   1.476       .  S
C29          C30   1.398       .  A
C29          H34   1.085       .  S
C30          C31   1.406       .  A
C30        C1929   1.485       .  S
C31          C32   1.416       .  A
C31          H35   1.079       .  S
C32          C33   1.414       .  A
C33          H36   1.079       .  S
C37          C38   1.408       .  A
C37          C42   1.402       .  A
C37        C1909   1.496       .  S
C38          C39   1.413       .  A
C38          H43   1.082       .  S
C39          C40   1.411       .  A
C39          C48   1.500       .  S
C40          C41   1.402       .  A
C40          H44   1.082       .  S
C41          C42   1.401       .  A
C41        C1898   1.490       .  S
C42          H45   1.083       .  S
C46          C47   1.402       .  A
C46          C51   1.395       .  A
C46        C1858   1.483       .  S
C47          C48   1.413       .  A
C47          H52   1.081       .  S
C48          C49   1.413       .  A
C49          C50   1.408       .  A
C49          H53   1.082       .  S
C50          C51   1.397       .  A
C50        C1869   1.488       .  S
C51          H54   1.084       .  S
C55          C56   1.403   1_556  A
C55          C60   1.406   1_556  A
C55        C1818   1.493       .  S
C56          C57   1.404       .  A
C56          H61   1.084   1_554  S
C57          C58   1.403       .  A
C57        C1829   1.495       .  S
C58          C59   1.411       .  A
C58          H62   1.080       .  S
C59          C60   1.419       .  A
C59          C68   1.511       .  S
C60          H63   1.079       .  S
C64          C65   1.400       .  A
C64          C69   1.408       .  A
C64        C1798   1.493       .  S
C65          C66   1.398       .  A
C65          H70   1.084       .  S
C66          C67   1.401       .  A
C66        C1769   1.481       .  S
C67          C68   1.411       .  A
C67          H71   1.079       .  S
C68          C69   1.421       .  A
C69          H72   1.080       .  S
C73          C74   1.395   1_655  A
C73          C78   1.396       .  A
C73        C1729   1.481       .  S
C74          C75   1.414       .  A
C74          H79   1.079       .  S
C75          C76   1.421   1_455  A
C75          C84   1.518       .  S
C76          C77   1.419       .  A
C76          H80   1.077       .  S
C77          C78   1.405       .  A
C77        C1749   1.508       .  S
C78          H81   1.083       .  S
C82          C83   1.412       .  A
C82          C87   1.400       .  A
C82        C1718   1.488       .  S
C83          C84   1.421       .  A
C83          H88   1.079       .  S
C84          C85   1.419       .  A
C85          C86   1.399       .  A
C85          H89   1.079       .  S
C86          C87   1.396       .  A
C86        C1689   1.487       .  S
C87          H90   1.084       .  S
C91          C92   1.407       .  A
C91          C96   1.404       .  A
C91        C1649   1.493       .  S
C92          C93   1.415       .  A
C92          H97   1.080       .  S
C93          C94   1.410       .  A
C93         C102   1.499       .  S
C94          C95   1.398       .  A
C94          H98   1.082       .  S
C95          C96   1.399       .  A
C95        C1678   1.482       .  S
C96          H99   1.084       .  S
C100        C101   1.402       .  A
C100        C105   1.401       .  A
C100       C1618   1.491       .  S
C101        C102   1.414       .  A
C101        H106   1.081       .  S
C102        C103   1.411       .  A
C103        C104   1.404       .  A
C103        H107   1.081       .  S
C104        C105   1.400       .  A
C104       C1638   1.488   1_545  S
C105        H108   1.084       .  S
C109        C110   1.399       .  A
C109        C114   1.402       .  A
C109       C1598   1.484       .  S
C110        C111   1.400   1_455  A
C110        H115   1.084   1_455  S
C111        C112   1.404   1_655  A
C111       C1569   1.482       .  S
C112        C113   1.410       .  A
C112        H116   1.082   1_455  S
C113        C114   1.414       .  A
C113        C122   1.500       .  S
C114        H117   1.081       .  S
C118        C119   1.401       .  A
C118        C123   1.408       .  A
C118       C1558   1.492       .  S
C119        C120   1.400       .  A
C119        H124   1.084       .  S
C120        C121   1.399       .  A
C120       C1538   1.482       .  S
C121        C122   1.409       .  A
C121        H125   1.082       .  S
C122        C123   1.415       .  A
C123        H126   1.081       .  S
C127        C128   1.399       .  A
C127        C132   1.410       .  A
C127       C1509   1.490       .  S
C128        C129   1.397       .  A
C128        H133   1.084       .  S
C129        C130   1.400       .  A
C129       C1489   1.477       .  S
C130        C131   1.412       .  A
C130        H134   1.081       .  S
C131        C132   1.417       .  A
C131        C138   1.505       .  S
C132        H135   1.082       .  S
C136        C137   1.404       .  A
C136        C141   1.396       .  A
C136       C1449   1.485       .  S
C137        C138   1.417       .  A
C137        H142   1.081       .  S
C138        C139   1.414       .  A
C139        C140   1.406       .  A
C139        H143   1.082       .  S
C140        C141   1.398       .  A
C140       C1478   1.483       .  S
C141        H144   1.085       .  S
C145        C146   1.401       .  A
C145        C150   1.396       .  A
C145       C1438   1.478       .  S
C146        C147   1.414       .  A
C146        H151   1.081       .  S
C147        C148   1.409       .  A
C147        C156   1.495       .  S
C148        C149   1.400       .  A
C148        H152   1.082       .  S
C149        C150   1.398       .  A
C149       C1418   1.477       .  S
C150        H153   1.084       .  S
C154        C155   1.407       .  A
C154        C159   1.400       .  A
C154       C1369   1.489       .  S
C155        C156   1.415       .  A
C155        H160   1.082       .  S
C156        C157   1.406       .  A
C157        C158   1.396       .  A
C157        H161   1.081       .  S
C158        C159   1.398       .  A
C158       C1398   1.474       .  S
C159        H162   1.084       .  S
C163        C164   1.410   1_556  A
C163        C168   1.399       .  A
C163       C1338   1.491       .  S
C164        C165   1.421       .  A
C164        H169   1.080       .  S
C165        C166   1.412       .  A
C165        C174   1.510       .  S
C166        C167   1.398       .  A
C166        H170   1.079       .  S
C167        C168   1.396   1_554  A
C167       C1358   1.475       .  S
C168        H171   1.084       .  S
C172        C173   1.403       .  A
C172        C177   1.399       .  A
C172       C1309   1.489       .  S
C173        C174   1.421       .  A
C173        H178   1.079       .  S
C174        C175   1.414       .  A
C175        C176   1.404       .  A
C175        H179   1.080       .  S
C176        C177   1.401       .  A
C176       C1298   1.485       .  S
C177        H180   1.084       .  S
C181        C182   1.406       .  A
C181        C186   1.398       .  A
C181       C1249   1.491       .  S
C182        C183   1.419       .  A
C182        H187   1.080       .  S
C183        C184   1.416       .  A
C183        C194   1.509       .  S
C184        C185   1.401       .  A
C184        H188   1.080       .  S
C185        C186   1.397       .  A
C185       C1269   1.482       .  S
C186        H189   1.085       .  S
C190        C191   1.398   1_455  A
C190        C195   1.403       .  A
C190       C1229   1.482       .  S
C191        C192   1.399       .  A
C191        H196   1.084       .  S
C192        C193   1.403       .  A
C192       C1218   1.480       .  S
C193        C194   1.414   1_655  A
C193        H197   1.080       .  S
C194        C195   1.417       .  A
C195        H198   1.080       .  S
C199        C200   1.401       .  A
C199        C204   1.402       .  A
C199       C1169   1.489       .  S
C200        C201   1.413       .  A
C200        H205   1.080       .  S
C201        C202   1.414       .  A
C201        C212   1.507       .  S
C202        C203   1.409       .  A
C202        H206   1.081       .  S
C203        C204   1.406       .  A
C203       C1189   1.500       .  S
C204        H207   1.083       .  S
C208        C209   1.397   1_545  A
C208        C213   1.405       .  A
C208       C1138   1.480       .  S
C209        C210   1.397       .  A
C209        H214   1.085       .  S
C210        C211   1.402   1_565  A
C210       C1149   1.484       .  S
C211        C212   1.415       .  A
C211        H215   1.080       .  S
C212        C213   1.417       .  A
C213        H216   1.081       .  S
C217        C218   1.398       .  A
C217        C222   1.403       .  A
C217       C1118   1.482       .  S
C218        C219   1.396       .  A
C218        H223   1.084       .  S
C219        C220   1.405       .  A
C219       C1098   1.485       .  S
C220        C221   1.418       .  A
C220        H224   1.080       .  S
C221        C222   1.412       .  A
C221        C230   1.508       .  S
C222        H225   1.080       .  S
C226        C227   1.403       .  A
C226        C231   1.405       .  A
C226       C1069   1.492       .  S
C227        C228   1.398       .  A
C227        H232   1.084       .  S
C228        C229   1.402       .  A
C228       C1058   1.485       .  S
C229        C230   1.418       .  A
C229        H233   1.079       .  S
C230        C231   1.413       .  A
C231        H234   1.080       .  S
C235        C236   1.398       .  A
C235        C240   1.408       .  A
C235       C1029   1.489       .  S
C236        C237   1.396       .  A
C236        H241   1.085       .  S
C237        C238   1.402       .  A
C237       C1018   1.481       .  S
C238        C239   1.415       .  A
C238        H242   1.080       .  S
C239        C240   1.419       .  A
C239        C248   1.511       .  S
C240        H243   1.080       .  S
C244        C245   1.400   1_545  A
C244        C249   1.404       .  A
C244        C998   1.487       .  S
C245        C246   1.399   1_565  A
C245        H250   1.084       .  S
C246        C247   1.405       .  A
C246        C969   1.482   1_545  S
C247        C248   1.415       .  A
C247        H251   1.080       .  S
C248        C249   1.417       .  A
C249        H252   1.080       .  S
C253        C254   1.404       .  A
C253        C258   1.400       .  A
C253        C938   1.483       .  S
C254        C255   1.413       .  A
C254        H259   1.082       .  S
C255        C256   1.417       .  A
C255        C266   1.503       .  S
C256        C257   1.403       .  A
C256        H260   1.081       .  S
C257        C258   1.398       .  A
C257        C958   1.485       .  S
C258        H261   1.084       .  S
C262        C263   1.399       .  A
C262        C267   1.400       .  A
C262        C889   1.481       .  S
C263        C264   1.400       .  A
C263        H268   1.084       .  S
C264        C265   1.408       .  A
C264        C909   1.488       .  S
C265        C266   1.416       .  A
C265        H269   1.082       .  S
C266        C267   1.411       .  A
C267        H270   1.081       .  S
C271        C272   1.395       .  A
C271        C276   1.403       .  A
C271        C858   1.482       .  S
C272        C273   1.397       .  A
C272        H277   1.084       .  S
C273        C274   1.401       .  A
C273        C869   1.484       .  S
C274        C275   1.415       .  A
C274        H278   1.079       .  S
C275        C276   1.418       .  A
C275        C282   1.510       .  S
C276        H279   1.078       .  S
C280        C281   1.404       .  A
C280        C285   1.399       .  A
C280        C829   1.488       .  S
C281        C282   1.418       .  A
C281        H286   1.079       .  S
C282        C283   1.413       .  A
C283        C284   1.400       .  A
C283        H287   1.078       .  S
C284        C285   1.398       .  A
C284        C809   1.481       .  S
C285        H288   1.084       .  S
C289        C290   1.404       .  A
C289        C294   1.401       .  A
C289        C789   1.489   1_554  S
C290        C291   1.417       .  A
C290        H295   1.080       .  S
C291        C292   1.412       .  A
C291        C300   1.508       .  S
C292        C293   1.403       .  A
C292        H296   1.081       .  S
C293        C294   1.401       .  A
C293        C769   1.487       .  S
C294        H297   1.084   1_554  S
C298        C299   1.409       .  A
C298        C303   1.403       .  A
C298        C738   1.496       .  S
C299        C300   1.420       .  A
C299        H304   1.081       .  S
C300        C301   1.412       .  A
C301        C302   1.399       .  A
C301        H305   1.079       .  S
C302        C303   1.400       .  A
C302        C749   1.484       .  S
C303        H306   1.084       .  S
C307        C308   1.402       .  A
C307        C312   1.395       .  A
C307        C698   1.480       .  S
C308        C309   1.418       .  A
C308        H313   1.078       .  S
C309        C310   1.419       .  A
C309        C320   1.513       .  S
C310        C311   1.403       .  A
C310        H314   1.079       .  S
C311        C312   1.397       .  A
C311        C709   1.484       .  S
C312        H315   1.085       .  S
C316        C317   1.398   1_455  A
C316        C321   1.400       .  A
C316        C649   1.480   1_455  S
C317        C318   1.399       .  A
C317        H322   1.084       .  S
C318        C319   1.407   1_655  A
C318        C678   1.492       .  S
C319        C320   1.419       .  A
C319        H323   1.078       .  S
C320        C321   1.416       .  A
C321        H324   1.079       .  S
O325        C336   1.288       .  A
O325       Eu361   2.443       .  S
O326        C337   1.291       .  A
O326       Eu360   2.458       .  S
O327        C338   1.287       .  A
O327       Eu333   2.451       .  S
O328        C339   1.289       .  A
O328       Eu333   2.447       .  S
O329        C339   1.295       .  A
O329       Eu363   2.480       .  S
O330        C338   1.292       .  A
O330       Eu362   2.471       .  S
O331        C337   1.289       .  A
O331       Eu333   2.445       .  S
O332        C336   1.294       .  A
O332       Eu333   2.480       .  S
Eu333       O343   2.345       .  S
Eu333       O335   2.347       .  S
Eu333       O334   2.363       .  S
Eu333       O341   2.350       .  S
O334       Eu363   2.350       .  S
O334       Eu360   2.354       .  S
O335       Eu361   2.352       .  S
O335       Eu362   2.347       .  S
C336       C2078   1.475       .  S
C337       C1578   1.476       .  S
C338       C1458   1.501       .  S
C339        C669   1.482       .  S
H340        O341   0.966       .  S
O341       Eu362   2.350       .  S
O341       Eu360   2.358       .  S
H342        O343   0.966       .  S
O343       Eu361   2.359       .  S
O343       Eu363   2.360       .  S
O344        C367   1.292       .  A
O344       Eu360   2.467       .  S
O345        C368   1.293       .  A
O345       Eu361   2.471       .  S
O346        C369   1.291       .  A
O346       Eu362   2.456       .  S
O347        C370   1.289       .  A
O347       Eu363   2.459       .  S
O348        C371   1.287       .  A
O348       Eu363   2.449       .  S
O349        C372   1.291       .  A
O349       Eu362   2.456       .  S
O350        C373   1.290       .  A
O350       Eu364   2.454       .  S
O351        C374   1.291       .  A
O351       Eu364   2.460       .  S
O352        C373   1.291       .  A
O352       Eu362   2.461       .  S
O353        C374   1.294       .  A
O353       Eu363   2.473       .  S
O354        C369   1.291       .  A
O354       Eu360   2.460       .  S
O355        C372   1.292       .  A
O355       Eu361   2.465       .  S
O356        C371   1.289       .  A
O356       Eu361   2.463       .  S
O357        C370   1.293       .  A
O357       Eu360   2.474       .  S
O358        C367   1.291       .  A
O358       Eu364   2.462       .  S
O359        C368   1.288       .  A
O359       Eu364   2.443       .  S
Eu360       O378   2.345       .  S
Eu360       O366   2.356       .  S
Eu361       O365   2.351       .  S
Eu361       O376   2.355       .  S
Eu362       O376   2.359       .  S
Eu362       O366   2.357       .  S
Eu363       O365   2.353       .  S
Eu363       O378   2.348       .  S
Eu364       O365   2.353       .  S
Eu364       O376   2.353       .  S
Eu364       O378   2.341       .  S
Eu364       O366   2.353       .  S
C367       C1809   1.494       .  S
C368       C1529   1.483       .  S
C369       C1938   1.479       .  S
C370        C798   1.505       .  S
C371       C1989   1.507       .  S
C372       C1038   1.489       .  S
C373        C718   1.481       .  S
C374       C1329   1.484       .  S
H375        O376   0.966       .  S
H377        O378   0.965       .  S
O379        C390   1.287       .  A
O379       Eu415   2.453   1_556  S
O380        C391   1.292       .  A
O380       Eu414   2.467   1_545  S
O381        C392   1.290       .  A
O381       Eu387   2.450       .  S
O382        C393   1.291   1_565  A
O382       Eu387   2.457   1_556  S
O383        C393   1.291   1_565  A
O383       Eu417   2.458   1_556  S
O384        C392   1.292       .  A
O384       Eu416   2.461       .  S
O385        C391   1.291       .  A
O385       Eu387   2.457   1_545  S
O386        C390   1.290       .  A
O386       Eu387   2.465   1_556  S
Eu387       O397   2.347       .  S
Eu387       O389   2.351       .  S
Eu387       O388   2.349       .  S
Eu387       O395   2.351       .  S
O388       Eu417   2.347       .  S
O388       Eu414   2.346       .  S
O389       Eu415   2.352       .  S
O389       Eu416   2.362       .  S
C390       C1958   1.509       .  S
C391        C778   1.486       .  S
C392       C1289   1.478       .  S
C393        C658   1.483       .  S
H394        O395   0.966       .  S
O395       Eu416   2.353       .  S
O395       Eu414   2.345       .  S
H396        O397   0.966   1_556  S
O397       Eu415   2.352       .  S
O397       Eu417   2.353       .  S
O398        C421   1.289       .  A
O398       Eu414   2.446       .  S
O399        C422   1.288       .  A
O399       Eu415   2.442       .  S
O400        C423   1.289       .  A
O400       Eu416   2.464       .  S
O401        C424   1.292       .  A
O401       Eu417   2.464   1_445  S
O402        C425   1.291       .  A
O402       Eu417   2.454   1_556  S
O403        C426   1.289       .  A
O403       Eu416   2.447       .  S
O404        C427   1.286       .  A
O404       Eu418   2.431       .  S
O405        C428   1.286   1_655  A
O405       Eu418   2.446       .  S
O406        C427   1.295       .  A
O406       Eu416   2.483       .  S
O407        C428   1.288       .  A
O407       Eu417   2.454   1_455  S
O408        C423   1.290       .  A
O408       Eu414   2.459       .  S
O409        C426   1.294       .  A
O409       Eu415   2.474       .  S
O410        C425   1.294       .  A
O410       Eu415   2.476   1_556  S
O411        C424   1.290   1_655  A
O411       Eu414   2.452   1_545  S
O412        C421   1.293       .  A
O412       Eu418   2.472       .  S
O413        C422   1.298       .  A
O413       Eu418   2.494       .  S
Eu414       O432   2.355       .  S
Eu414       O420   2.356       .  S
Eu415       O419   2.354       .  S
Eu415       O430   2.362       .  S
Eu416       O430   2.358       .  S
Eu416       O420   2.347       .  S
Eu417       O419   2.351       .  S
Eu417       O432   2.344       .  S
Eu418       O419   2.351       .  S
Eu418       O430   2.350       .  S
Eu418       O432   2.352       .  S
Eu418       O420   2.362       .  S
C421       C1658   1.484   1_655  S
C422        C758   1.487       .  S
C423       C1129   1.507       .  S
C424       C1778   1.486       .  S
C425       C1549   1.486       .  S
C426       C1838   1.477       .  S
C427        C838   1.478       .  S
C428       C1349   1.501       .  S
H429        O430   0.966       .  S
H431        O432   0.966       .  S
O433        C444   1.291       .  A
O433       Eu469   2.460       .  S
O434        C445   1.292       .  A
O434       Eu468   2.466       .  S
O435        C446   1.289       .  A
O435       Eu441   2.452       .  S
O436        C447   1.290       .  A
O436       Eu441   2.462       .  S
O437        C447   1.288       .  A
O437       Eu471   2.448       .  S
O438        C446   1.294       .  A
O438       Eu470   2.479       .  S
O439        C445   1.292       .  A
O439       Eu441   2.464       .  S
O440        C444   1.293       .  A
O440       Eu441   2.474       .  S
Eu441       O451   2.362       .  S
Eu441       O443   2.355       .  S
Eu441       O442   2.350       .  S
Eu441       O449   2.361       .  S
O442       Eu471   2.345       .  S
O442       Eu468   2.350       .  S
O443       Eu469   2.352       .  S
O443       Eu470   2.358       .  S
C444       C1918   1.483       .  S
C445       C1049   1.494       .  S
C446        C929   1.496       .  S
C447       C1209   1.495       .  S
H448        O449   0.966       .  S
O449       Eu470   2.350       .  S
O449       Eu468   2.351       .  S
H450        O451   0.966       .  S
O451       Eu469   2.372       .  S
O451       Eu471   2.371       .  S
O452        C475   1.292       .  A
O452       Eu468   2.465       .  S
O453        C476   1.292       .  A
O453       Eu469   2.476       .  S
O454        C477   1.292       .  A
O454       Eu470   2.467       .  S
O455        C478   1.294       .  A
O455       Eu471   2.476       .  S
O456        C479   1.295       .  A
O456       Eu471   2.481       .  S
O457        C480   1.290       .  A
O457       Eu470   2.455       .  S
O458        C481   1.284       .  A
O458       Eu472   2.431       .  S
O459        C482   1.290       .  A
O459       Eu472   2.458       .  S
O460        C481   1.293       .  A
O460       Eu470   2.475       .  S
O461        C482   1.288       .  A
O461       Eu471   2.448       .  S
O462        C477   1.290       .  A
O462       Eu468   2.451       .  S
O463        C480   1.293       .  A
O463       Eu469   2.472       .  S
O464        C479   1.291       .  A
O464       Eu469   2.456       .  S
O465        C478   1.290       .  A
O465       Eu468   2.463       .  S
O466        C475   1.291       .  A
O466       Eu472   2.460       .  S
O467        C476   1.290       .  A
O467       Eu472   2.460       .  S
Eu468       O486   2.356       .  S
Eu468       O474   2.352       .  S
Eu469       O473   2.350       .  S
Eu469       O484   2.344       .  S
Eu470       O484   2.358       .  S
Eu470       O474   2.351       .  S
Eu471       O473   2.346       .  S
Eu471       O486   2.351       .  S
Eu472       O473   2.330       .  S
Eu472       O484   2.354       .  S
Eu472       O486   2.352       .  S
Eu472       O474   2.357       .  S
C475       C1609   1.474       .  S
C476       C1089   1.506       .  S
C477       C1698   1.485       .  S
C478       C1178   1.504       .  S
C479       C1758   1.478       .  S
C480       C1429   1.493       .  S
C481       C1278   1.494       .  S
C482        C849   1.491       .  S
H483        O484   0.966       .  S
H485        O486   0.966       .  S
O487        C498   1.291       .  A
O487       Eu523   2.462       .  S
O488        C499   1.290       .  A
O488       Eu522   2.451       .  S
O489        C500   1.288       .  A
O489       Eu495   2.460       .  S
O490        C501   1.286       .  A
O490       Eu495   2.433       .  S
O491        C501   1.296       .  A
O491       Eu525   2.483       .  S
O492        C500   1.291       .  A
O492       Eu524   2.466       .  S
O493        C499   1.291       .  A
O493       Eu495   2.462       .  S
O494        C498   1.292       .  A
O494       Eu495   2.464       .  S
Eu495       O505   2.360       .  S
Eu495       O497   2.352       .  S
Eu495       O496   2.357       .  S
Eu495       O503   2.344       .  S
O496       Eu525   2.355       .  S
O496       Eu522   2.347       .  S
O497       Eu523   2.354       .  S
O497       Eu524   2.350       .  S
C498       C2058   1.476       .  S
C499       C1589   1.481       .  S
C500        C978   1.512       .  S
C501       C1978   1.480       .  S
H502        O503   0.966       .  S
O503       Eu524   2.356       .  S
O503       Eu522   2.362       .  S
H504        O505   0.965       .  S
O505       Eu523   2.353       .  S
O505       Eu525   2.346       .  S
O506        C529   1.287       .  A
O506       Eu522   2.439       .  S
O507        C530   1.291       .  A
O507       Eu523   2.459       .  S
O508        C531   1.290       .  A
O508       Eu524   2.450       .  S
O509        C532   1.286       .  A
O509       Eu525   2.452       .  S
O510        C533   1.292       .  A
O510       Eu525   2.467       .  S
O511        C534   1.293       .  A
O511       Eu524   2.469       .  S
O512        C535   1.289       .  A
O512       Eu526   2.454       .  S
O513        C536   1.289       .  A
O513       Eu526   2.450       .  S
O514        C535   1.291       .  A
O514       Eu524   2.462       .  S
O515        C536   1.293       .  A
O515       Eu525   2.466       .  S
O516        C531   1.292       .  A
O516       Eu522   2.463       .  S
O517        C534   1.289       .  A
O517       Eu523   2.447       .  S
O518        C533   1.284       .  A
O518       Eu523   2.436       .  S
O519        C532   1.294       .  A
O519       Eu522   2.494       .  S
O520        C529   1.291       .  A
O520       Eu526   2.458       .  S
O521        C530   1.290       .  A
O521       Eu526   2.452       .  S
Eu522       O540   2.353       .  S
Eu522       O528   2.360       .  S
Eu523       O527   2.340       .  S
Eu523       O538   2.345       .  S
Eu524       O538   2.340       .  S
Eu524       O528   2.359       .  S
Eu525       O527   2.346       .  S
Eu525       O540   2.356       .  S
Eu526       O527   2.346       .  S
Eu526       O538   2.347       .  S
Eu526       O540   2.354       .  S
Eu526       O528   2.345       .  S
C529       C2018   1.462       .  S
C530       C1378   1.479       .  S
C531       C1469   1.481       .  S
C532        C689   1.521       .  S
C533       C1498   1.495       .  S
C534        C898   1.487       .  S
C535       C1849   1.493       .  S
C536       C1009   1.482       .  S
H537        O538   0.965       .  S
H539        O540   0.966       .  S
O541        C552   1.293       .  A
O541       Eu577   2.469       .  S
O542        C553   1.287       .  A
O542       Eu576   2.443       .  S
O543        C554   1.294       .  A
O543       Eu549   2.479       .  S
O544        C555   1.293       .  A
O544       Eu549   2.471       .  S
O545        C555   1.289       .  A
O545       Eu579   2.445       .  S
O546        C554   1.291       .  A
O546       Eu578   2.470       .  S
O547        C553   1.291       .  A
O547       Eu549   2.458       .  S
O548        C552   1.291       .  A
O548       Eu549   2.463       .  S
Eu549       O559   2.358       .  S
Eu549       O551   2.357       .  S
Eu549       O550   2.354       .  S
Eu549       O557   2.346       .  S
O550       Eu579   2.358       .  S
O550       Eu576   2.347       .  S
O551       Eu577   2.359       .  S
O551       Eu578   2.358       .  S
C552       C1789   1.489       .  S
C553       C1158   1.485       .  S
C554       C1318   1.514       .  S
C555        C878   1.483       .  S
H556        O557   0.965       .  S
O557       Eu578   2.359       .  S
O557       Eu576   2.352       .  S
H558        O559   0.966       .  S
O559       Eu577   2.351       .  S
O559       Eu579   2.366       .  S
O560        C583   1.288       .  A
O560       Eu576   2.461       .  S
O561        C584   1.296       .  A
O561       Eu577   2.487       .  S
O562        C585   1.294       .  A
O562       Eu578   2.473       .  S
O563        C586   1.295       .  A
O563       Eu579   2.477       .  S
O564        C587   1.294       .  A
O564       Eu579   2.477       .  S
O565        C588   1.300       .  A
O565       Eu578   2.510       .  S
O566        C589   1.288       .  A
O566       Eu580   2.439       .  S
O567        C590   1.287       .  A
O567       Eu580   2.452       .  S
O568        C589   1.294       .  A
O568       Eu578   2.474       .  S
O569        C590   1.293       .  A
O569       Eu579   2.486       .  S
O570        C585   1.291       .  A
O570       Eu576   2.458       .  S
O571        C588   1.288       .  A
O571       Eu577   2.440       .  S
O572        C587   1.288       .  A
O572       Eu577   2.450       .  S
O573        C586   1.288       .  A
O573       Eu576   2.441       .  S
O574        C583   1.291       .  A
O574       Eu580   2.474       .  S
O575        C584   1.286       .  A
O575       Eu580   2.430       .  S
Eu576       O594   2.351       .  S
Eu576       O582   2.351       .  S
Eu577       O581   2.349       .  S
Eu577       O592   2.358       .  S
Eu578       O592   2.355       .  S
Eu578       O582   2.370       .  S
Eu579       O581   2.338       .  S
Eu579       O594   2.356       .  S
Eu580       O581   2.353       .  S
Eu580       O592   2.363       .  S
Eu580       O594   2.339       .  S
Eu580       O582   2.345       .  S
C583       C1709   1.516       .  S
C584       C1198   1.476       .  S
C585       C1629   1.478       .  S
C586       C1109   1.480       .  S
C587       C1669   1.500       .  S
C588        C729   1.494       .  S
C589        C818   1.484       .  S
C590       C1238   1.515       .  S
H591        O592   0.966       .  S
H593        O594   0.966       .  S
O595        C606   1.290       .  A
O595       Eu631   2.454       .  S
O596        C607   1.290       .  A
O596       Eu630   2.460       .  S
O597        C608   1.292       .  A
O597       Eu603   2.470       .  S
O598        C609   1.293       .  A
O598       Eu603   2.469       .  S
O599        C609   1.290       .  A
O599       Eu633   2.453       .  S
O600        C608   1.292       .  A
O600       Eu632   2.469       .  S
O601        C607   1.289       .  A
O601       Eu603   2.450       .  S
O602        C606   1.288       .  A
O602       Eu603   2.443       .  S
Eu603       O613   2.358       .  S
Eu603       O605   2.344       .  S
Eu603       O604   2.344       .  S
Eu603       O611   2.357       .  S
O604       Eu633   2.349       .  S
O604       Eu630   2.346       .  S
O605       Eu631   2.348       .  S
O605       Eu632   2.349       .  S
C606       C2029   1.480       .  S
C607       C1389   1.489       .  S
C608        C949   1.506       .  S
C609       C1518   1.484       .  S
H610        O611   0.966       .  S
O611       Eu632   2.367       .  S
O611       Eu630   2.362       .  S
H612        O613   0.966       .  S
O613       Eu631   2.346       .  S
O613       Eu633   2.349       .  S
O614        C637   1.289       .  A
O614       Eu630   2.462       .  S
O615        C638   1.289   1_655  A
O615       Eu631   2.448   1_545  S
O616        C639   1.295       .  A
O616       Eu632   2.481       .  S
O617        C640   1.290       .  A
O617       Eu633   2.455       .  S
O618        C641   1.292       .  A
O618       Eu633   2.465       .  S
O619        C642   1.294       .  A
O619       Eu632   2.476   1_545  S
O620        C643   1.292   1_565  A
O620       Eu634   2.467       .  S
O621        C644   1.294       .  A
O621       Eu634   2.475   1_455  S
O622        C643   1.295   1_565  A
O622       Eu632   2.482       .  S
O623        C644   1.289   1_655  A
O623       Eu633   2.443       .  S
O624        C639   1.288       .  A
O624       Eu630   2.443       .  S
O625        C642   1.289       .  A
O625       Eu631   2.447   1_545  S
O626        C641   1.293       .  A
O626       Eu631   2.474       .  S
O627        C640   1.291       .  A
O627       Eu630   2.459       .  S
O628        C637   1.290       .  A
O628       Eu634   2.458       .  S
O629        C638   1.289       .  A
O629       Eu634   2.448   1_445  S
Eu630       O648   2.351       .  S
Eu630       O636   2.357       .  S
Eu631       O635   2.346       .  S
Eu631       O646   2.356       .  S
Eu632       O646   2.358       .  S
Eu632       O636   2.357       .  S
Eu633       O635   2.349       .  S
Eu633       O648   2.359       .  S
Eu634       O635   2.354       .  S
Eu634       O646   2.357       .  S
Eu634       O648   2.355       .  S
Eu634       O636   2.349       .  S
C637       C1738   1.506       .  S
C638       C1409   1.476       .  S
C639       C1078   1.473       .  S
C640       C1889   1.481       .  S
C641        C989   1.500   1_655  S
C642       C1878   1.482       .  S
C643       C1258   1.495       .  S
C644        C918   1.479       .  S
H645        O646   0.966   1_545  S
H647        O648   0.966       .  S
C649        C650   1.410   1_655  A
C649        C654   1.407       .  A
C650        C651   1.408       .  A
C650       Br662   1.928       .  S
C651        C652   1.411   1_455  A
C651       Br666   1.930       .  S
C652        C653   1.410       .  A
C652        C655   1.484       .  S
C653        C654   1.403       .  A
C653       Br661   1.932       .  S
C654       Br665   1.925       .  S
C655        C656   1.408       .  A
C655        C660   1.409       .  A
C656        C657   1.406       .  A
C656       Br667   1.931   1_655  S
C657        C658   1.415       .  A
C657       Br663   1.933   1_545  S
C658        C659   1.415       .  A
C659        C660   1.407       .  A
C659       Br668   1.930       .  S
C660       Br664   1.933       .  S
C669        C670   1.409       .  A
C669        C674   1.412       .  A
C670        C671   1.404       .  A
C670       Br682   1.923       .  S
C671        C672   1.409       .  A
C671       Br686   1.931       .  S
C672        C673   1.413       .  A
C672        C675   1.488       .  S
C673        C674   1.410       .  A
C673       Br681   1.932       .  S
C674       Br685   1.928       .  S
C675        C676   1.412       .  A
C675        C680   1.408       .  A
C676        C677   1.411       .  A
C676       Br687   1.931       .  S
C677        C678   1.414       .  A
C677       Br683   1.930       .  S
C678        C679   1.415       .  A
C679        C680   1.405       .  A
C679       Br688   1.926       .  S
C680       Br684   1.934       .  S
C689        C690   1.433       .  A
C689        C694   1.437       .  A
C690        C691   1.414       .  A
C690       Br702   1.936       .  S
C691        C692   1.403       .  A
C691       Br706   1.934       .  S
C692        C693   1.402       .  A
C692        C695   1.490       .  S
C693        C694   1.411       .  A
C693       Br701   1.938       .  S
C694       Br705   1.942       .  S
C695        C696   1.410       .  A
C695        C700   1.412       .  A
C696        C697   1.407       .  A
C696       Br707   1.930       .  S
C697        C698   1.409       .  A
C697       Br703   1.930       .  S
C698        C699   1.408       .  A
C699        C700   1.410       .  A
C699       Br708   1.929       .  S
C700       Br704   1.927       .  S
C709        C710   1.411       .  A
C709        C714   1.413       .  A
C710        C711   1.406       .  A
C710       Br722   1.930       .  S
C711        C712   1.408       .  A
C711       Br726   1.931       .  S
C712        C713   1.409       .  A
C712        C715   1.484       .  S
C713        C714   1.409       .  A
C713       Br721   1.930       .  S
C714       Br725   1.931       .  S
C715        C716   1.409       .  A
C715        C720   1.407       .  A
C716        C717   1.408       .  A
C716       Br727   1.931       .  S
C717        C718   1.414       .  A
C717       Br723   1.932       .  S
C718        C719   1.414       .  A
C719        C720   1.406       .  A
C719       Br728   1.932       .  S
C720       Br724   1.931       .  S
C729        C730   1.411       .  A
C729        C734   1.418       .  A
C730        C731   1.411       .  A
C730       Br742   1.923       .  S
C731        C732   1.411       .  A
C731       Br746   1.929       .  S
C732        C733   1.409       .  A
C732        C735   1.495       .  S
C733        C734   1.411       .  A
C733       Br741   1.932   1_455  S
C734       Br745   1.930       .  S
C735        C736   1.409   1_455  A
C735        C740   1.412       .  A
C736        C737   1.408       .  A
C736       Br747   1.932       .  S
C737        C738   1.413       .  A
C737       Br743   1.925       .  S
C738        C739   1.415       .  A
C739        C740   1.413   1_655  A
C739       Br748   1.930       .  S
C740       Br744   1.930       .  S
C749        C750   1.410       .  A
C749        C754   1.411       .  A
C750        C751   1.404       .  A
C750       Br762   1.927       .  S
C751        C752   1.410       .  A
C751       Br766   1.932       .  S
C752        C753   1.413       .  A
C752        C755   1.489       .  S
C753        C754   1.410       .  A
C753       Br761   1.930       .  S
C754       Br765   1.931       .  S
C755        C756   1.411       .  A
C755        C760   1.409       .  A
C756        C757   1.410       .  A
C756       Br767   1.932       .  S
C757        C758   1.416       .  A
C757       Br763   1.929       .  S
C758        C759   1.408       .  A
C759        C760   1.405       .  A
C759       Br768   1.921       .  S
C760       Br764   1.930       .  S
C769        C770   1.414       .  A
C769        C774   1.413       .  A
C770        C771   1.407       .  A
C770       Br782   1.932       .  S
C771        C772   1.408       .  A
C771       Br786   1.930       .  S
C772        C773   1.411       .  A
C772        C775   1.488       .  S
C773        C774   1.410       .  A
C773       Br781   1.930   1_554  S
C774       Br785   1.931   1_554  S
C775        C776   1.409       .  A
C775        C780   1.409       .  A
C776        C777   1.411       .  A
C776       Br787   1.930       .  S
C777        C778   1.416       .  A
C777       Br783   1.931       .  S
C778        C779   1.414       .  A
C779        C780   1.407       .  A
C779       Br788   1.933       .  S
C780       Br784   1.933       .  S
C789        C790   1.412       .  A
C789        C794   1.415       .  A
C790        C791   1.409       .  A
C790       Br802   1.929   1_556  S
C791        C792   1.409       .  A
C791       Br806   1.930       .  S
C792        C793   1.408       .  A
C792        C795   1.488       .  S
C793        C794   1.409       .  A
C793       Br801   1.931       .  S
C794       Br805   1.930       .  S
C795        C796   1.405       .  A
C795        C800   1.404       .  A
C796        C797   1.408       .  A
C796       Br807   1.934       .  S
C797        C798   1.426       .  A
C797       Br803   1.937       .  S
C798        C799   1.426       .  A
C799        C800   1.411       .  A
C799       Br808   1.934       .  S
C800       Br804   1.932       .  S
C809        C810   1.411       .  A
C809        C814   1.411       .  A
C810        C811   1.408       .  A
C810       Br822   1.931       .  S
C811        C812   1.410       .  A
C811       Br826   1.930       .  S
C812        C813   1.410       .  A
C812        C815   1.484       .  S
C813        C814   1.404       .  A
C813       Br821   1.933       .  S
C814       Br825   1.928       .  S
C815        C816   1.408       .  A
C815        C820   1.409       .  A
C816        C817   1.408   1_655  A
C816       Br827   1.932       .  S
C817        C818   1.418       .  A
C817       Br823   1.933       .  S
C818        C819   1.414       .  A
C819        C820   1.405   1_455  A
C819       Br828   1.933       .  S
C820       Br824   1.932       .  S
C829        C830   1.415       .  A
C829        C834   1.411       .  A
C830        C831   1.409       .  A
C830       Br842   1.931       .  S
C831        C832   1.410       .  A
C831       Br846   1.931       .  S
C832        C833   1.410       .  A
C832        C835   1.486       .  S
C833        C834   1.405       .  A
C833       Br841   1.933       .  S
C834       Br845   1.926       .  S
C835        C836   1.411       .  A
C835        C840   1.410       .  A
C836        C837   1.408       .  A
C836       Br847   1.932       .  S
C837        C838   1.413       .  A
C837       Br843   1.934       .  S
C838        C839   1.409       .  A
C839        C840   1.405       .  A
C839       Br848   1.926       .  S
C840       Br844   1.931       .  S
C849        C850   1.423       .  A
C849        C854   1.421       .  A
C850        C851   1.407       .  A
C850       Br862   1.936       .  S
C851        C852   1.405       .  A
C851       Br866   1.933       .  S
C852        C853   1.405       .  A
C852        C855   1.482       .  S
C853        C854   1.407       .  A
C853       Br861   1.932       .  S
C854       Br865   1.935       .  S
C855        C856   1.408       .  A
C855        C860   1.408       .  A
C856        C857   1.406       .  A
C856       Br867   1.929       .  S
C857        C858   1.411       .  A
C857       Br863   1.930       .  S
C858        C859   1.413       .  A
C859        C860   1.407       .  A
C859       Br868   1.930       .  S
C860       Br864   1.931       .  S
C869        C870   1.416       .  A
C869        C874   1.413       .  A
C870        C871   1.406       .  A
C870       Br882   1.933       .  S
C871        C872   1.407       .  A
C871       Br886   1.932       .  S
C872        C873   1.406       .  A
C872        C875   1.477       .  S
C873        C874   1.404       .  A
C873       Br881   1.931       .  S
C874       Br885   1.931       .  S
C875        C876   1.403       .  A
C875        C880   1.407       .  A
C876        C877   1.401       .  A
C876       Br887   1.933       .  S
C877        C878   1.416       .  A
C877       Br883   1.923       .  S
C878        C879   1.415       .  A
C879        C880   1.408       .  A
C879       Br888   1.931       .  S
C880       Br884   1.929       .  S
C889        C890   1.413       .  A
C889        C894   1.410       .  A
C890        C891   1.405       .  A
C890       Br902   1.932       .  S
C891        C892   1.408       .  A
C891       Br906   1.931       .  S
C892        C893   1.409       .  A
C892        C895   1.483       .  S
C893        C894   1.407       .  A
C893       Br901   1.930       .  S
C894       Br905   1.929       .  S
C895        C896   1.406       .  A
C895        C900   1.407       .  A
C896        C897   1.409       .  A
C896       Br907   1.931       .  S
C897        C898   1.420       .  A
C897       Br903   1.932       .  S
C898        C899   1.415       .  A
C899        C900   1.405       .  A
C899       Br908   1.930       .  S
C900       Br904   1.934       .  S
C909        C910   1.414       .  A
C909        C914   1.412       .  A
C910        C911   1.409       .  A
C910       Br922   1.930       .  S
C911        C912   1.409       .  A
C911       Br926   1.931       .  S
C912        C913   1.410       .  A
C912        C915   1.488       .  S
C913        C914   1.408       .  A
C913       Br921   1.932       .  S
C914       Br925   1.930       .  S
C915        C916   1.409       .  A
C915        C920   1.411       .  A
C916        C917   1.407       .  A
C916       Br927   1.931       .  S
C917        C918   1.413       .  A
C917       Br923   1.931   1_455  S
C918        C919   1.412       .  A
C919        C920   1.408       .  A
C919       Br928   1.931       .  S
C920       Br924   1.930       .  S
C929        C930   1.420       .  A
C929        C934   1.422       .  A
C930        C931   1.411       .  A
C930       Br942   1.933       .  S
C931        C932   1.406       .  A
C931       Br946   1.930       .  S
C932        C933   1.407       .  A
C932        C935   1.488       .  S
C933        C934   1.409       .  A
C933       Br941   1.933       .  S
C934       Br945   1.935       .  S
C935        C936   1.410       .  A
C935        C940   1.410   1_545  A
C936        C937   1.408       .  A
C936       Br947   1.930       .  S
C937        C938   1.410   1_545  A
C937       Br943   1.929       .  S
C938        C939   1.411       .  A
C939        C940   1.409       .  A
C939       Br948   1.930       .  S
C940       Br944   1.929       .  S
C949        C950   1.425       .  A
C949        C954   1.424       .  A
C950        C951   1.411       .  A
C950       Br962   1.934       .  S
C951        C952   1.405       .  A
C951       Br966   1.932       .  S
C952        C953   1.407       .  A
C952        C955   1.493       .  S
C953        C954   1.412       .  A
C953       Br961   1.933       .  S
C954       Br965   1.934       .  S
C955        C956   1.411       .  A
C955        C960   1.413       .  A
C956        C957   1.407       .  A
C956       Br967   1.930       .  S
C957        C958   1.410       .  A
C957       Br963   1.931       .  S
C958        C959   1.410       .  A
C959        C960   1.413       .  A
C959       Br968   1.927   1_565  S
C960       Br964   1.929   1_565  S
C969        C970   1.410       .  A
C969        C974   1.410       .  A
C970        C971   1.406       .  A
C970       Br982   1.931       .  S
C971        C972   1.409       .  A
C971       Br986   1.930       .  S
C972        C973   1.411       .  A
C972        C975   1.489       .  S
C973        C974   1.411       .  A
C973       Br981   1.928       .  S
C974       Br985   1.927       .  S
C975        C976   1.404       .  A
C975        C980   1.404       .  A
C976        C977   1.413       .  A
C976       Br987   1.934       .  S
C977        C978   1.432       .  A
C977       Br983   1.938       .  S
C978        C979   1.427       .  A
C979        C980   1.410       .  A
C979       Br988   1.939       .  S
C980       Br984   1.934       .  S
C989        C990   1.420       .  A
C989        C994   1.421   1_565  A
C990        C991   1.408       .  A
C990      Br1002   1.931       .  S
C991        C992   1.407       .  A
C991      Br1006   1.934       .  S
C992        C993   1.408   1_565  A
C992        C995   1.492   1_565  S
C993        C994   1.415       .  A
C993      Br1001   1.930       .  S
C994      Br1005   1.932   1_455  S
C995        C996   1.411   1_545  A
C995       C1000   1.410       .  A
C996        C997   1.410       .  A
C996      Br1007   1.928       .  S
C997        C998   1.411   1_565  A
C997      Br1003   1.930       .  S
C998        C999   1.411       .  A
C999       C1000   1.409       .  A
C999      Br1008   1.929       .  S
C1000     Br1004   1.930       .  S
C1009      C1010   1.416       .  A
C1009      C1014   1.411       .  A
C1010      C1011   1.408       .  A
C1010     Br1022   1.928       .  S
C1011      C1012   1.407       .  A
C1011     Br1026   1.931       .  S
C1012      C1013   1.408       .  A
C1012      C1015   1.482       .  S
C1013      C1014   1.403       .  A
C1013     Br1021   1.932       .  S
C1014     Br1025   1.925       .  S
C1015      C1016   1.409       .  A
C1015      C1020   1.409       .  A
C1016      C1017   1.405       .  A
C1016     Br1027   1.933       .  S
C1017      C1018   1.412       .  A
C1017     Br1023   1.931       .  S
C1018      C1019   1.411       .  A
C1019      C1020   1.407       .  A
C1019     Br1028   1.930       .  S
C1020     Br1024   1.930       .  S
C1029      C1030   1.414       .  A
C1029      C1034   1.413       .  A
C1030      C1031   1.409       .  A
C1030     Br1042   1.931       .  S
C1031      C1032   1.409       .  A
C1031     Br1046   1.930       .  S
C1032      C1033   1.409       .  A
C1032      C1035   1.488       .  S
C1033      C1034   1.408       .  A
C1033     Br1041   1.930       .  S
C1034     Br1045   1.930       .  S
C1035      C1036   1.407       .  A
C1035      C1040   1.408       .  A
C1036      C1037   1.409       .  A
C1036     Br1047   1.930       .  S
C1037      C1038   1.418       .  A
C1037     Br1043   1.934       .  S
C1038      C1039   1.417       .  A
C1039      C1040   1.409       .  A
C1039     Br1048   1.934       .  S
C1040     Br1044   1.931       .  S
C1049      C1050   1.418       .  A
C1049      C1054   1.418       .  A
C1050      C1051   1.410       .  A
C1050     Br1062   1.933       .  S
C1051      C1052   1.409   1_545  A
C1051     Br1066   1.932   1_545  S
C1052      C1053   1.409   1_565  A
C1052      C1055   1.492       .  S
C1053      C1054   1.410       .  A
C1053     Br1061   1.931   1_545  S
C1054     Br1065   1.932       .  S
C1055      C1056   1.410       .  A
C1055      C1060   1.413       .  A
C1056      C1057   1.407       .  A
C1056     Br1067   1.931   1_565  S
C1057      C1058   1.410       .  A
C1057     Br1063   1.928       .  S
C1058      C1059   1.409       .  A
C1059      C1060   1.412       .  A
C1059     Br1068   1.927       .  S
C1060     Br1064   1.929       .  S
C1069      C1070   1.413       .  A
C1069      C1074   1.418       .  A
C1070      C1071   1.403       .  A
C1070     Br1082   1.928       .  S
C1071      C1072   1.408       .  A
C1071     Br1086   1.933       .  S
C1072      C1073   1.410       .  A
C1072      C1075   1.487       .  S
C1073      C1074   1.411       .  A
C1073     Br1081   1.930       .  S
C1074     Br1085   1.933       .  S
C1075      C1076   1.411       .  A
C1075      C1080   1.413       .  A
C1076      C1077   1.405       .  A
C1076     Br1087   1.931       .  S
C1077      C1078   1.408       .  A
C1077     Br1083   1.928       .  S
C1078      C1079   1.407       .  A
C1079      C1080   1.408       .  A
C1079     Br1088   1.928       .  S
C1080     Br1084   1.929       .  S
C1089      C1090   1.424       .  A
C1089      C1094   1.425       .  A
C1090      C1091   1.409       .  A
C1090     Br1102   1.931       .  S
C1091      C1092   1.404       .  A
C1091     Br1106   1.934       .  S
C1092      C1093   1.406       .  A
C1092      C1095   1.488       .  S
C1093      C1094   1.412       .  A
C1093     Br1101   1.932       .  S
C1094     Br1105   1.935       .  S
C1095      C1096   1.409       .  A
C1095      C1100   1.410       .  A
C1096      C1097   1.408       .  A
C1096     Br1107   1.930       .  S
C1097      C1098   1.413       .  A
C1097     Br1103   1.929       .  S
C1098      C1099   1.411       .  A
C1099      C1100   1.409       .  A
C1099     Br1108   1.930       .  S
C1100     Br1104   1.929       .  S
C1109      C1110   1.415       .  A
C1109      C1114   1.410       .  A
C1110      C1111   1.404       .  A
C1110     Br1122   1.926       .  S
C1111      C1112   1.406       .  A
C1111     Br1126   1.933       .  S
C1112      C1113   1.410       .  A
C1112      C1115   1.481       .  S
C1113      C1114   1.407       .  A
C1113     Br1121   1.931       .  S
C1114     Br1125   1.926       .  S
C1115      C1116   1.409       .  A
C1115      C1120   1.408       .  A
C1116      C1117   1.404       .  A
C1116     Br1127   1.931       .  S
C1117      C1118   1.411       .  A
C1117     Br1123   1.929       .  S
C1118      C1119   1.415       .  A
C1119      C1120   1.406       .  A
C1119     Br1128   1.933       .  S
C1120     Br1124   1.931       .  S
C1129      C1130   1.428   1_565  A
C1129      C1134   1.429       .  A
C1130      C1131   1.409       .  A
C1130     Br1142   1.938       .  S
C1131      C1132   1.403   1_545  A
C1131     Br1146   1.933       .  S
C1132      C1133   1.405       .  A
C1132      C1135   1.486   1_565  S
C1133      C1134   1.410       .  A
C1133     Br1141   1.935       .  S
C1134     Br1145   1.938       .  S
C1135      C1136   1.409       .  A
C1135      C1140   1.410       .  A
C1136      C1137   1.407       .  A
C1136     Br1147   1.930   1_545  S
C1137      C1138   1.409       .  A
C1137     Br1143   1.928       .  S
C1138      C1139   1.410       .  A
C1139      C1140   1.408       .  A
C1139     Br1148   1.928       .  S
C1140     Br1144   1.929       .  S
C1149      C1150   1.412       .  A
C1149      C1154   1.414       .  A
C1150      C1151   1.408       .  A
C1150     Br1162   1.930       .  S
C1151      C1152   1.409       .  A
C1151     Br1166   1.931       .  S
C1152      C1153   1.406       .  A
C1152      C1155   1.481       .  S
C1153      C1154   1.404       .  A
C1153     Br1161   1.933       .  S
C1154     Br1165   1.930       .  S
C1155      C1156   1.406       .  A
C1155      C1160   1.407       .  A
C1156      C1157   1.403       .  A
C1156     Br1167   1.932       .  S
C1157      C1158   1.416       .  A
C1157     Br1163   1.932       .  S
C1158      C1159   1.420       .  A
C1159      C1160   1.408       .  A
C1159     Br1168   1.935       .  S
C1160     Br1164   1.932       .  S
C1169      C1170   1.415       .  A
C1169      C1174   1.411       .  A
C1170      C1171   1.408       .  A
C1170     Br1182   1.932       .  S
C1171      C1172   1.408       .  A
C1171     Br1186   1.931       .  S
C1172      C1173   1.409       .  A
C1172      C1175   1.488       .  S
C1173      C1174   1.411       .  A
C1173     Br1181   1.929       .  S
C1174     Br1185   1.928       .  S
C1175      C1176   1.406       .  A
C1175      C1180   1.405       .  A
C1176      C1177   1.413       .  A
C1176     Br1187   1.932       .  S
C1177      C1178   1.426       .  A
C1177     Br1183   1.933       .  S
C1178      C1179   1.421       .  A
C1179      C1180   1.408       .  A
C1179     Br1188   1.931       .  S
C1180     Br1184   1.934       .  S
C1189      C1190   1.418       .  A
C1189      C1194   1.419       .  A
C1190      C1191   1.408       .  A
C1190     Br1202   1.932       .  S
C1191      C1192   1.407       .  A
C1191     Br1206   1.932       .  S
C1192      C1193   1.411       .  A
C1192      C1195   1.492       .  S
C1193      C1194   1.413       .  A
C1193     Br1201   1.931       .  S
C1194     Br1205   1.932       .  S
C1195      C1196   1.411   1_655  A
C1195      C1200   1.413       .  A
C1196      C1197   1.410       .  A
C1196     Br1207   1.927       .  S
C1197      C1198   1.409       .  A
C1197     Br1203   1.929       .  S
C1198      C1199   1.409       .  A
C1199      C1200   1.407   1_455  A
C1199     Br1208   1.933       .  S
C1200     Br1204   1.930       .  S
C1209      C1210   1.424       .  A
C1209      C1214   1.422       .  A
C1210      C1211   1.409       .  A
C1210     Br1222   1.933       .  S
C1211      C1212   1.404       .  A
C1211     Br1226   1.932       .  S
C1212      C1213   1.405       .  A
C1212      C1215   1.482       .  S
C1213      C1214   1.406       .  A
C1213     Br1221   1.934       .  S
C1214     Br1225   1.936       .  S
C1215      C1216   1.408       .  A
C1215      C1220   1.409       .  A
C1216      C1217   1.404       .  A
C1216     Br1227   1.932       .  S
C1217      C1218   1.411       .  A
C1217     Br1223   1.931       .  S
C1218      C1219   1.411       .  A
C1219      C1220   1.409       .  A
C1219     Br1228   1.928       .  S
C1220     Br1224   1.929       .  S
C1229      C1230   1.409       .  A
C1229      C1234   1.409       .  A
C1230      C1231   1.411       .  A
C1230     Br1242   1.929       .  S
C1231      C1232   1.412       .  A
C1231     Br1246   1.928       .  S
C1232      C1233   1.411       .  A
C1232      C1235   1.492       .  S
C1233      C1234   1.408       .  A
C1233     Br1241   1.930       .  S
C1234     Br1245   1.929       .  S
C1235      C1236   1.404       .  A
C1235      C1240   1.406       .  A
C1236      C1237   1.409       .  A
C1236     Br1247   1.936       .  S
C1237      C1238   1.431       .  A
C1237     Br1243   1.939       .  S
C1238      C1239   1.429       .  A
C1239      C1240   1.415       .  A
C1239     Br1248   1.934       .  S
C1240     Br1244   1.933       .  S
C1249      C1250   1.413   1_455  A
C1249      C1254   1.413       .  A
C1250      C1251   1.411       .  A
C1250     Br1262   1.930       .  S
C1251      C1252   1.412   1_655  A
C1251     Br1266   1.931       .  S
C1252      C1253   1.411       .  A
C1252      C1255   1.496   1_455  S
C1253      C1254   1.410       .  A
C1253     Br1261   1.928       .  S
C1254     Br1265   1.932       .  S
C1255      C1256   1.410       .  A
C1255      C1260   1.410       .  A
C1256      C1257   1.413       .  A
C1256     Br1267   1.930       .  S
C1257      C1258   1.417       .  A
C1257     Br1263   1.931       .  S
C1258      C1259   1.416       .  A
C1259      C1260   1.410       .  A
C1259     Br1268   1.931   1_545  S
C1260     Br1264   1.932   1_655  S
C1269      C1270   1.409       .  A
C1269      C1274   1.414       .  A
C1270      C1271   1.404       .  A
C1270     Br1282   1.929       .  S
C1271      C1272   1.408       .  A
C1271     Br1286   1.931       .  S
C1272      C1273   1.409       .  A
C1272      C1275   1.481       .  S
C1273      C1274   1.408       .  A
C1273     Br1281   1.931       .  S
C1274     Br1285   1.930       .  S
C1275      C1276   1.405       .  A
C1275      C1280   1.403       .  A
C1276      C1277   1.407       .  A
C1276     Br1287   1.933       .  S
C1277      C1278   1.422       .  A
C1277     Br1283   1.936       .  S
C1278      C1279   1.428       .  A
C1279      C1280   1.406       .  A
C1279     Br1288   1.940       .  S
C1280     Br1284   1.935       .  S
C1289      C1290   1.411       .  A
C1289      C1294   1.412       .  A
C1290      C1291   1.405       .  A
C1290     Br1302   1.926       .  S
C1291      C1292   1.409       .  A
C1291     Br1306   1.932       .  S
C1292      C1293   1.409       .  A
C1292      C1295   1.484       .  S
C1293      C1294   1.407       .  A
C1293     Br1301   1.928   1_554  S
C1294     Br1305   1.931   1_554  S
C1295      C1296   1.408       .  A
C1295      C1300   1.410       .  A
C1296      C1297   1.406       .  A
C1296     Br1307   1.932       .  S
C1297      C1298   1.411       .  A
C1297     Br1303   1.926       .  S
C1298      C1299   1.413       .  A
C1299      C1300   1.409       .  A
C1299     Br1308   1.930       .  S
C1300     Br1304   1.931       .  S
C1309      C1310   1.410       .  A
C1309      C1314   1.411       .  A
C1310      C1311   1.406       .  A
C1310     Br1322   1.927       .  S
C1311      C1312   1.408       .  A
C1311     Br1326   1.931       .  S
C1312      C1313   1.412       .  A
C1312      C1315   1.492       .  S
C1313      C1314   1.414       .  A
C1313     Br1321   1.928       .  S
C1314     Br1325   1.927       .  S
C1315      C1316   1.405       .  A
C1315      C1320   1.405       .  A
C1316      C1317   1.413       .  A
C1316     Br1327   1.933       .  S
C1317      C1318   1.429       .  A
C1317     Br1323   1.934       .  S
C1318      C1319   1.427       .  A
C1319      C1320   1.412       .  A
C1319     Br1328   1.935       .  S
C1320     Br1324   1.933       .  S
C1329      C1330   1.411       .  A
C1329      C1334   1.411       .  A
C1330      C1331   1.408       .  A
C1330     Br1342   1.925       .  S
C1331      C1332   1.411       .  A
C1331     Br1346   1.931       .  S
C1332      C1333   1.413       .  A
C1332      C1335   1.495       .  S
C1333      C1334   1.411       .  A
C1333     Br1341   1.930       .  S
C1334     Br1345   1.928       .  S
C1335      C1336   1.412   1_545  A
C1335      C1340   1.413       .  A
C1336      C1337   1.411       .  A
C1336     Br1347   1.931       .  S
C1337      C1338   1.412       .  A
C1337     Br1343   1.930       .  S
C1338      C1339   1.413   1_565  A
C1339      C1340   1.410       .  A
C1339     Br1348   1.932       .  S
C1340     Br1344   1.933       .  S
C1349      C1350   1.428       .  A
C1349      C1354   1.431       .  A
C1350      C1351   1.403       .  A
C1350     Br1362   1.941       .  S
C1351      C1352   1.401       .  A
C1351     Br1366   1.936       .  S
C1352      C1353   1.402       .  A
C1352      C1355   1.476       .  S
C1353      C1354   1.408       .  A
C1353     Br1361   1.935       .  S
C1354     Br1365   1.939       .  S
C1355      C1356   1.409       .  A
C1355      C1360   1.407       .  A
C1356      C1357   1.406       .  A
C1356     Br1367   1.930       .  S
C1357      C1358   1.408       .  A
C1357     Br1363   1.927   1_554  S
C1358      C1359   1.411       .  A
C1359      C1360   1.403       .  A
C1359     Br1368   1.931       .  S
C1360     Br1364   1.931       .  S
C1369      C1370   1.417       .  A
C1369      C1374   1.416       .  A
C1370      C1371   1.406       .  A
C1370     Br1382   1.933       .  S
C1371      C1372   1.406       .  A
C1371     Br1386   1.932       .  S
C1372      C1373   1.408       .  A
C1372      C1375   1.482       .  S
C1373      C1374   1.408       .  A
C1373     Br1381   1.932       .  S
C1374     Br1385   1.931       .  S
C1375      C1376   1.407       .  A
C1375      C1380   1.409       .  A
C1376      C1377   1.406       .  A
C1376     Br1387   1.931       .  S
C1377      C1378   1.415       .  A
C1377     Br1383   1.928       .  S
C1378      C1379   1.412       .  A
C1379      C1380   1.405       .  A
C1379     Br1388   1.929       .  S
C1380     Br1384   1.931       .  S
C1389      C1390   1.421       .  A
C1389      C1394   1.420       .  A
C1390      C1391   1.407       .  A
C1390     Br1402   1.931       .  S
C1391      C1392   1.404       .  A
C1391     Br1406   1.933       .  S
C1392      C1393   1.406       .  A
C1392      C1395   1.478       .  S
C1393      C1394   1.406       .  A
C1393     Br1401   1.934       .  S
C1394     Br1405   1.935       .  S
C1395      C1396   1.408       .  A
C1395      C1400   1.408       .  A
C1396      C1397   1.403       .  A
C1396     Br1407   1.931       .  S
C1397      C1398   1.411       .  A
C1397     Br1403   1.933       .  S
C1398      C1399   1.409       .  A
C1399      C1400   1.405       .  A
C1399     Br1408   1.930       .  S
C1400     Br1404   1.929       .  S
C1409      C1410   1.414       .  A
C1409      C1414   1.415       .  A
C1410      C1411   1.404       .  A
C1410     Br1422   1.932       .  S
C1411      C1412   1.408       .  A
C1411     Br1426   1.934       .  S
C1412      C1413   1.405       .  A
C1412      C1415   1.475       .  S
C1413      C1414   1.403       .  A
C1413     Br1421   1.931       .  S
C1414     Br1425   1.931       .  S
C1415      C1416   1.408       .  A
C1415      C1420   1.407       .  A
C1416      C1417   1.405       .  A
C1416     Br1427   1.932       .  S
C1417      C1418   1.412       .  A
C1417     Br1423   1.931       .  S
C1418      C1419   1.413       .  A
C1419      C1420   1.403       .  A
C1419     Br1428   1.932       .  S
C1420     Br1424   1.932       .  S
C1429      C1430   1.420       .  A
C1429      C1434   1.420       .  A
C1430      C1431   1.409       .  A
C1430     Br1442   1.934       .  S
C1431      C1432   1.408       .  A
C1431     Br1446   1.933       .  S
C1432      C1433   1.407       .  A
C1432      C1435   1.487       .  S
C1433      C1434   1.409       .  A
C1433     Br1441   1.932       .  S
C1434     Br1445   1.933       .  S
C1435      C1436   1.411       .  A
C1435      C1440   1.410       .  A
C1436      C1437   1.407       .  A
C1436     Br1447   1.929       .  S
C1437      C1438   1.408       .  A
C1437     Br1443   1.930       .  S
C1438      C1439   1.410       .  A
C1439      C1440   1.407       .  A
C1439     Br1448   1.930       .  S
C1440     Br1444   1.931       .  S
C1449      C1450   1.412       .  A
C1449      C1454   1.413       .  A
C1450      C1451   1.408       .  A
C1450     Br1462   1.930       .  S
C1451      C1452   1.409       .  A
C1451     Br1466   1.930       .  S
C1452      C1453   1.408       .  A
C1452      C1455   1.486       .  S
C1453      C1454   1.408       .  A
C1453     Br1461   1.930       .  S
C1454     Br1465   1.931       .  S
C1455      C1456   1.406       .  A
C1455      C1460   1.403       .  A
C1456      C1457   1.410       .  A
C1456     Br1467   1.935       .  S
C1457      C1458   1.426       .  A
C1457     Br1463   1.936       .  S
C1458      C1459   1.423       .  A
C1459      C1460   1.408       .  A
C1459     Br1468   1.935       .  S
C1460     Br1464   1.931       .  S
C1469      C1470   1.416       .  A
C1469      C1474   1.415       .  A
C1470      C1471   1.407   1_455  A
C1470     Br1482   1.933       .  S
C1471      C1472   1.407       .  A
C1471     Br1486   1.930       .  S
C1472      C1473   1.408       .  A
C1472      C1475   1.482       .  S
C1473      C1474   1.405   1_655  A
C1473     Br1481   1.933       .  S
C1474     Br1485   1.933       .  S
C1475      C1476   1.408       .  A
C1475      C1480   1.408       .  A
C1476      C1477   1.407       .  A
C1476     Br1487   1.930       .  S
C1477      C1478   1.412       .  A
C1477     Br1483   1.930       .  S
C1478      C1479   1.413       .  A
C1479      C1480   1.406       .  A
C1479     Br1488   1.931       .  S
C1480     Br1484   1.931       .  S
C1489      C1490   1.410       .  A
C1489      C1494   1.409       .  A
C1490      C1491   1.404       .  A
C1490     Br1502   1.930       .  S
C1491      C1492   1.407       .  A
C1491     Br1506   1.930       .  S
C1492      C1493   1.409       .  A
C1492      C1495   1.479       .  S
C1493      C1494   1.407       .  A
C1493     Br1501   1.930       .  S
C1494     Br1505   1.928       .  S
C1495      C1496   1.403       .  A
C1495      C1500   1.404       .  A
C1496      C1497   1.408       .  A
C1496     Br1507   1.931       .  S
C1497      C1498   1.423       .  A
C1497     Br1503   1.934       .  S
C1498      C1499   1.427       .  A
C1499      C1500   1.405       .  A
C1499     Br1508   1.941       .  S
C1500     Br1504   1.936       .  S
C1509      C1510   1.416       .  A
C1509      C1514   1.413       .  A
C1510      C1511   1.410       .  A
C1510     Br1522   1.931       .  S
C1511      C1512   1.409       .  A
C1511     Br1526   1.931       .  S
C1512      C1513   1.409       .  A
C1512      C1515   1.489       .  S
C1513      C1514   1.408       .  A
C1513     Br1521   1.930       .  S
C1514     Br1525   1.931       .  S
C1515      C1516   1.409       .  A
C1515      C1520   1.409       .  A
C1516      C1517   1.407       .  A
C1516     Br1527   1.931       .  S
C1517      C1518   1.413       .  A
C1517     Br1523   1.932       .  S
C1518      C1519   1.417       .  A
C1519      C1520   1.410       .  A
C1519     Br1528   1.933       .  S
C1520     Br1524   1.930       .  S
C1529      C1530   1.415       .  A
C1529      C1534   1.415       .  A
C1530      C1531   1.405       .  A
C1530     Br1542   1.933       .  S
C1531      C1532   1.407   1_545  A
C1531     Br1546   1.932       .  S
C1532      C1533   1.405       .  A
C1532      C1535   1.480       .  S
C1533      C1534   1.407   1_565  A
C1533     Br1541   1.930       .  S
C1534     Br1545   1.923       .  S
C1535      C1536   1.408       .  A
C1535      C1540   1.407       .  A
C1536      C1537   1.405       .  A
C1536     Br1547   1.929       .  S
C1537      C1538   1.412       .  A
C1537     Br1543   1.932       .  S
C1538      C1539   1.415       .  A
C1539      C1540   1.406       .  A
C1539     Br1548   1.932       .  S
C1540     Br1544   1.931       .  S
C1549      C1550   1.414       .  A
C1549      C1554   1.414       .  A
C1550      C1551   1.409       .  A
C1550     Br1562   1.927       .  S
C1551      C1552   1.409       .  A
C1551     Br1566   1.931       .  S
C1552      C1553   1.410   1_655  A
C1552      C1555   1.490   1_655  S
C1553      C1554   1.409   1_455  A
C1553     Br1561   1.930       .  S
C1554     Br1565   1.932   1_655  S
C1555      C1556   1.409       .  A
C1555      C1560   1.409       .  A
C1556      C1557   1.409       .  A
C1556     Br1567   1.930   1_455  S
C1557      C1558   1.416       .  A
C1557     Br1563   1.932       .  S
C1558      C1559   1.414       .  A
C1559      C1560   1.409       .  A
C1559     Br1568   1.930       .  S
C1560     Br1564   1.931       .  S
C1569      C1570   1.413       .  A
C1569      C1574   1.413       .  A
C1570      C1571   1.404       .  A
C1570     Br1582   1.932       .  S
C1571      C1572   1.408       .  A
C1571     Br1586   1.933       .  S
C1572      C1573   1.410       .  A
C1572      C1575   1.482       .  S
C1573      C1574   1.408       .  A
C1573     Br1581   1.932       .  S
C1574     Br1585   1.930   1_655  S
C1575      C1576   1.409       .  A
C1575      C1580   1.409       .  A
C1576      C1577   1.407       .  A
C1576     Br1587   1.930       .  S
C1577      C1578   1.413       .  A
C1577     Br1583   1.931       .  S
C1578      C1579   1.413       .  A
C1579      C1580   1.402       .  A
C1579     Br1588   1.931       .  S
C1580     Br1584   1.935       .  S
C1589      C1590   1.414       .  A
C1589      C1594   1.413       .  A
C1590      C1591   1.408       .  A
C1590     Br1602   1.931       .  S
C1591      C1592   1.409       .  A
C1591     Br1606   1.930       .  S
C1592      C1593   1.410       .  A
C1592      C1595   1.486       .  S
C1593      C1594   1.406       .  A
C1593     Br1601   1.932       .  S
C1594     Br1605   1.932       .  S
C1595      C1596   1.410       .  A
C1595      C1600   1.410       .  A
C1596      C1597   1.407       .  A
C1596     Br1607   1.931       .  S
C1597      C1598   1.413       .  A
C1597     Br1603   1.932       .  S
C1598      C1599   1.411       .  A
C1599      C1600   1.408       .  A
C1599     Br1608   1.930   1_455  S
C1600     Br1604   1.931       .  S
C1609      C1610   1.406       .  A
C1609      C1614   1.409       .  A
C1610      C1611   1.406       .  A
C1610     Br1622   1.929       .  S
C1611      C1612   1.415       .  A
C1611     Br1626   1.932       .  S
C1612      C1613   1.412       .  A
C1612      C1615   1.491       .  S
C1613      C1614   1.408       .  A
C1613     Br1621   1.931       .  S
C1614     Br1625   1.926       .  S
C1615      C1616   1.411       .  A
C1615      C1620   1.412       .  A
C1616      C1617   1.408       .  A
C1616     Br1627   1.933       .  S
C1617      C1618   1.417       .  A
C1617     Br1623   1.932       .  S
C1618      C1619   1.413       .  A
C1619      C1620   1.407       .  A
C1619     Br1628   1.933       .  S
C1620     Br1624   1.932       .  S
C1629      C1630   1.408       .  A
C1629      C1634   1.411       .  A
C1630      C1631   1.407       .  A
C1630     Br1642   1.928       .  S
C1631      C1632   1.411       .  A
C1631     Br1646   1.930       .  S
C1632      C1633   1.409       .  A
C1632      C1635   1.487       .  S
C1633      C1634   1.408       .  A
C1633     Br1641   1.931       .  S
C1634     Br1645   1.924       .  S
C1635      C1636   1.409       .  A
C1635      C1640   1.410       .  A
C1636      C1637   1.406       .  A
C1636     Br1647   1.932       .  S
C1637      C1638   1.415       .  A
C1637     Br1643   1.933       .  S
C1638      C1639   1.414       .  A
C1639      C1640   1.409       .  A
C1639     Br1648   1.931   1_565  S
C1640     Br1644   1.930       .  S
C1649      C1650   1.415       .  A
C1649      C1654   1.417       .  A
C1650      C1651   1.404       .  A
C1650     Br1662   1.927       .  S
C1651      C1652   1.407       .  A
C1651     Br1666   1.934       .  S
C1652      C1653   1.409       .  A
C1652      C1655   1.485       .  S
C1653      C1654   1.411       .  A
C1653     Br1661   1.931   1_545  S
C1654     Br1665   1.930   1_545  S
C1655      C1656   1.409       .  A
C1655      C1660   1.407   1_545  A
C1656      C1657   1.409   1_445  A
C1656     Br1667   1.931       .  S
C1657      C1658   1.416   1_655  A
C1657     Br1663   1.933       .  S
C1658      C1659   1.414       .  A
C1659      C1660   1.405       .  A
C1659     Br1668   1.924       .  S
C1660     Br1664   1.933       .  S
C1669      C1670   1.426       .  A
C1669      C1674   1.423       .  A
C1670      C1671   1.408       .  A
C1670     Br1682   1.936       .  S
C1671      C1672   1.404       .  A
C1671     Br1686   1.935       .  S
C1672      C1673   1.405       .  A
C1672      C1675   1.484       .  S
C1673      C1674   1.410       .  A
C1673     Br1681   1.932       .  S
C1674     Br1685   1.935       .  S
C1675      C1676   1.409       .  A
C1675      C1680   1.408       .  A
C1676      C1677   1.408       .  A
C1676     Br1687   1.929       .  S
C1677      C1678   1.411       .  A
C1677     Br1683   1.930       .  S
C1678      C1679   1.410       .  A
C1679      C1680   1.405       .  A
C1679     Br1688   1.925       .  S
C1680     Br1684   1.930       .  S
C1689      C1690   1.414       .  A
C1689      C1694   1.412       .  A
C1690      C1691   1.408       .  A
C1690     Br1702   1.931       .  S
C1691      C1692   1.408       .  A
C1691     Br1706   1.930       .  S
C1692      C1693   1.410       .  A
C1692      C1695   1.487       .  S
C1693      C1694   1.409       .  A
C1693     Br1701   1.930       .  S
C1694     Br1705   1.930       .  S
C1695      C1696   1.408   1_565  A
C1695      C1700   1.408       .  A
C1696      C1697   1.409       .  A
C1696     Br1707   1.929       .  S
C1697      C1698   1.416       .  A
C1697     Br1703   1.932       .  S
C1698      C1699   1.416       .  A
C1699      C1700   1.408   1_545  A
C1699     Br1708   1.933       .  S
C1700     Br1704   1.931       .  S
C1709      C1710   1.429       .  A
C1709      C1714   1.431       .  A
C1710      C1711   1.412       .  A
C1710     Br1722   1.936       .  S
C1711      C1712   1.403       .  A
C1711     Br1726   1.933       .  S
C1712      C1713   1.406       .  A
C1712      C1715   1.494       .  S
C1713      C1714   1.414       .  A
C1713     Br1721   1.934       .  S
C1714     Br1725   1.938       .  S
C1715      C1716   1.410       .  A
C1715      C1720   1.411       .  A
C1716      C1717   1.410       .  A
C1716     Br1727   1.929       .  S
C1717      C1718   1.411       .  A
C1717     Br1723   1.929       .  S
C1718      C1719   1.411       .  A
C1719      C1720   1.412       .  A
C1719     Br1728   1.929       .  S
C1720     Br1724   1.928       .  S
C1729      C1730   1.409       .  A
C1729      C1734   1.411       .  A
C1730      C1731   1.410       .  A
C1730     Br1742   1.927       .  S
C1731      C1732   1.411       .  A
C1731     Br1746   1.928       .  S
C1732      C1733   1.409       .  A
C1732      C1735   1.486       .  S
C1733      C1734   1.405       .  A
C1733     Br1741   1.931   1_655  S
C1734     Br1745   1.930   1_655  S
C1735      C1736   1.403       .  A
C1735      C1740   1.406       .  A
C1736      C1737   1.409       .  A
C1736     Br1747   1.931   1_655  S
C1737      C1738   1.426       .  A
C1737     Br1743   1.937   1_655  S
C1738      C1739   1.428       .  A
C1739      C1740   1.410       .  A
C1739     Br1748   1.937       .  S
C1740     Br1744   1.936       .  S
C1749      C1750   1.420       .  A
C1749      C1754   1.425       .  A
C1750      C1751   1.414       .  A
C1750     Br1762   1.931       .  S
C1751      C1752   1.410       .  A
C1751     Br1766   1.930       .  S
C1752      C1753   1.408       .  A
C1752      C1755   1.496       .  S
C1753      C1754   1.409       .  A
C1753     Br1761   1.935       .  S
C1754     Br1765   1.936       .  S
C1755      C1756   1.414       .  A
C1755      C1760   1.414       .  A
C1756      C1757   1.412       .  A
C1756     Br1767   1.930       .  S
C1757      C1758   1.412       .  A
C1757     Br1763   1.931       .  S
C1758      C1759   1.405       .  A
C1759      C1760   1.408       .  A
C1759     Br1768   1.928       .  S
C1760     Br1764   1.930       .  S
C1769      C1770   1.410       .  A
C1769      C1774   1.411       .  A
C1770      C1771   1.407       .  A
C1770     Br1782   1.930       .  S
C1771      C1772   1.411       .  A
C1771     Br1786   1.930       .  S
C1772      C1773   1.410       .  A
C1772      C1775   1.484       .  S
C1773      C1774   1.404       .  A
C1773     Br1781   1.933       .  S
C1774     Br1785   1.927       .  S
C1775      C1776   1.409       .  A
C1775      C1780   1.408       .  A
C1776      C1777   1.408       .  A
C1776     Br1787   1.932   1_554  S
C1777      C1778   1.416       .  A
C1777     Br1783   1.933   1_554  S
C1778      C1779   1.418       .  A
C1779      C1780   1.406       .  A
C1779     Br1788   1.933       .  S
C1780     Br1784   1.934       .  S
C1789      C1790   1.416       .  A
C1789      C1794   1.414       .  A
C1790      C1791   1.412       .  A
C1790     Br1802   1.932       .  S
C1791      C1792   1.410       .  A
C1791     Br1806   1.930       .  S
C1792      C1793   1.410       .  A
C1792      C1795   1.491       .  S
C1793      C1794   1.408       .  A
C1793     Br1801   1.932       .  S
C1794     Br1805   1.930       .  S
C1795      C1796   1.409       .  A
C1795      C1800   1.410       .  A
C1796      C1797   1.408       .  A
C1796     Br1807   1.931       .  S
C1797      C1798   1.413       .  A
C1797     Br1803   1.926       .  S
C1798      C1799   1.415       .  A
C1799      C1800   1.411       .  A
C1799     Br1808   1.930       .  S
C1800     Br1804   1.930       .  S
C1809      C1810   1.419       .  A
C1809      C1814   1.417       .  A
C1810      C1811   1.412       .  A
C1810     Br1822   1.933       .  S
C1811      C1812   1.410       .  A
C1811     Br1826   1.931       .  S
C1812      C1813   1.410       .  A
C1812      C1815   1.494       .  S
C1813      C1814   1.409       .  A
C1813     Br1821   1.932       .  S
C1814     Br1825   1.934       .  S
C1815      C1816   1.413       .  A
C1815      C1820   1.410       .  A
C1816      C1817   1.413       .  A
C1816     Br1827   1.930       .  S
C1817      C1818   1.412       .  A
C1817     Br1823   1.928       .  S
C1818      C1819   1.412       .  A
C1819      C1820   1.408       .  A
C1819     Br1828   1.927   1_556  S
C1820     Br1824   1.932       .  S
C1829      C1830   1.416       .  A
C1829      C1834   1.419       .  A
C1830      C1831   1.408       .  A
C1830     Br1842   1.927       .  S
C1831      C1832   1.408       .  A
C1831     Br1846   1.933       .  S
C1832      C1833   1.408       .  A
C1832      C1835   1.487       .  S
C1833      C1834   1.408       .  A
C1833     Br1841   1.933       .  S
C1834     Br1845   1.934       .  S
C1835      C1836   1.411       .  A
C1835      C1840   1.411       .  A
C1836      C1837   1.409       .  A
C1836     Br1847   1.930       .  S
C1837      C1838   1.412       .  A
C1837     Br1843   1.930       .  S
C1838      C1839   1.407       .  A
C1839      C1840   1.405       .  A
C1839     Br1848   1.927   1_554  S
C1840     Br1844   1.930   1_554  S
C1849      C1850   1.422       .  A
C1849      C1854   1.421       .  A
C1850      C1851   1.408       .  A
C1850     Br1862   1.933       .  S
C1851      C1852   1.406       .  A
C1851     Br1866   1.934       .  S
C1852      C1853   1.402       .  A
C1852      C1855   1.480       .  S
C1853      C1854   1.406       .  A
C1853     Br1861   1.932       .  S
C1854     Br1865   1.931       .  S
C1855      C1856   1.407       .  A
C1855      C1860   1.406   1_455  A
C1856      C1857   1.406       .  A
C1856     Br1867   1.931       .  S
C1857      C1858   1.414   1_455  A
C1857     Br1863   1.931       .  S
C1858      C1859   1.415       .  A
C1859      C1860   1.405       .  A
C1859     Br1868   1.933       .  S
C1860     Br1864   1.932       .  S
C1869      C1870   1.419       .  A
C1869      C1874   1.416       .  A
C1870      C1871   1.406       .  A
C1870     Br1882   1.935       .  S
C1871      C1872   1.406       .  A
C1871     Br1886   1.932       .  S
C1872      C1873   1.407       .  A
C1872      C1875   1.482       .  S
C1873      C1874   1.408       .  A
C1873     Br1881   1.930       .  S
C1874     Br1885   1.933       .  S
C1875      C1876   1.408       .  A
C1875      C1880   1.407       .  A
C1876      C1877   1.407       .  A
C1876     Br1887   1.931       .  S
C1877      C1878   1.414       .  A
C1877     Br1883   1.932       .  S
C1878      C1879   1.414       .  A
C1879      C1880   1.407       .  A
C1879     Br1888   1.927       .  S
C1880     Br1884   1.932       .  S
C1889      C1890   1.414       .  A
C1889      C1894   1.412       .  A
C1890      C1891   1.409       .  A
C1890     Br1902   1.932       .  S
C1891      C1892   1.409       .  A
C1891     Br1906   1.930       .  S
C1892      C1893   1.409       .  A
C1892      C1895   1.486       .  S
C1893      C1894   1.406       .  A
C1893     Br1901   1.932       .  S
C1894     Br1905   1.932       .  S
C1895      C1896   1.408       .  A
C1895      C1900   1.409       .  A
C1896      C1897   1.408       .  A
C1896     Br1907   1.932       .  S
C1897      C1898   1.418       .  A
C1897     Br1903   1.933       .  S
C1898      C1899   1.413       .  A
C1899      C1900   1.407       .  A
C1899     Br1908   1.931       .  S
C1900     Br1904   1.930       .  S
C1909      C1910   1.418       .  A
C1909      C1914   1.417       .  A
C1910      C1911   1.409       .  A
C1910     Br1922   1.933       .  S
C1911      C1912   1.409       .  A
C1911     Br1926   1.931       .  S
C1912      C1913   1.408       .  A
C1912      C1915   1.491       .  S
C1913      C1914   1.410       .  A
C1913     Br1921   1.931       .  S
C1914     Br1925   1.932       .  S
C1915      C1916   1.410       .  A
C1915      C1920   1.411       .  A
C1916      C1917   1.409       .  A
C1916     Br1927   1.931       .  S
C1917      C1918   1.412       .  A
C1917     Br1923   1.931       .  S
C1918      C1919   1.412       .  A
C1919      C1920   1.411       .  A
C1919     Br1928   1.930       .  S
C1920     Br1924   1.930       .  S
C1929      C1930   1.415       .  A
C1929      C1934   1.414       .  A
C1930      C1931   1.403       .  A
C1930     Br1942   1.934       .  S
C1931      C1932   1.408       .  A
C1931     Br1946   1.933       .  S
C1932      C1933   1.409       .  A
C1932      C1935   1.483       .  S
C1933      C1934   1.410       .  A
C1933     Br1941   1.930       .  S
C1934     Br1945   1.930       .  S
C1935      C1936   1.409       .  A
C1935      C1940   1.408       .  A
C1936      C1937   1.407       .  A
C1936     Br1947   1.931       .  S
C1937      C1938   1.414       .  A
C1937     Br1943   1.930       .  S
C1938      C1939   1.412       .  A
C1939      C1940   1.405       .  A
C1939     Br1948   1.932       .  S
C1940     Br1944   1.931       .  S
C1949      C1950   1.408       .  A
C1949      C1954   1.410       .  A
C1950      C1951   1.404       .  A
C1950     Br1962   1.930       .  S
C1951      C1952   1.409       .  A
C1951     Br1966   1.930       .  S
C1952      C1953   1.409       .  A
C1952      C1955   1.482       .  S
C1953      C1954   1.407       .  A
C1953     Br1961   1.929       .  S
C1954     Br1965   1.929       .  S
C1955      C1956   1.403       .  A
C1955      C1960   1.401       .  A
C1956      C1957   1.409       .  A
C1956     Br1967   1.937       .  S
C1957      C1958   1.432       .  A
C1957     Br1963   1.940       .  S
C1958      C1959   1.431       .  A
C1959      C1960   1.409       .  A
C1959     Br1968   1.938       .  S
C1960     Br1964   1.934       .  S
C1969      C1970   1.413       .  A
C1969      C1974   1.412       .  A
C1970      C1971   1.407       .  A
C1970     Br1982   1.931       .  S
C1971      C1972   1.408       .  A
C1971     Br1986   1.930       .  S
C1972      C1973   1.407       .  A
C1972      C1975   1.478       .  S
C1973      C1974   1.403       .  A
C1973     Br1981   1.932       .  S
C1974     Br1985   1.931       .  S
C1975      C1976   1.407       .  A
C1975      C1980   1.407       .  A
C1976      C1977   1.404       .  A
C1976     Br1987   1.933       .  S
C1977      C1978   1.415       .  A
C1977     Br1983   1.928       .  S
C1978      C1979   1.410       .  A
C1979      C1980   1.405       .  A
C1979     Br1988   1.925       .  S
C1980     Br1984   1.929       .  S
C1989      C1990   1.433       .  A
C1989      C1994   1.431       .  A
C1990      C1991   1.409       .  A
C1990     Br2002   1.941       .  S
C1991      C1992   1.400   1_545  A
C1991     Br2006   1.935       .  S
C1992      C1993   1.402       .  A
C1992      C1995   1.478       .  S
C1993      C1994   1.406   1_565  A
C1993     Br2001   1.938       .  S
C1994     Br2005   1.940       .  S
C1995      C1996   1.410       .  A
C1995      C2000   1.407       .  A
C1996      C1997   1.405       .  A
C1996     Br2007   1.929       .  S
C1997      C1998   1.406       .  A
C1997     Br2003   1.928       .  S
C1998      C1999   1.410       .  A
C1999      C2000   1.403       .  A
C1999     Br2008   1.931       .  S
C2000     Br2004   1.930       .  S
C2009      C2010   1.419       .  A
C2009      C2014   1.416       .  A
C2010      C2011   1.407       .  A
C2010     Br2022   1.932       .  S
C2011      C2012   1.408       .  A
C2011     Br2026   1.933       .  S
C2012      C2013   1.406       .  A
C2012      C2015   1.480       .  S
C2013      C2014   1.401       .  A
C2013     Br2021   1.934       .  S
C2014     Br2025   1.927       .  S
C2015      C2016   1.412       .  A
C2015      C2020   1.411   1_655  A
C2016      C2017   1.403   1_655  A
C2016     Br2027   1.931       .  S
C2017      C2018   1.405       .  A
C2017     Br2023   1.929       .  S
C2018      C2019   1.406       .  A
C2019      C2020   1.403       .  A
C2019     Br2028   1.929       .  S
C2020     Br2024   1.932   1_455  S
C2029      C2030   1.417   1_565  A
C2029      C2034   1.417       .  A
C2030      C2031   1.406       .  A
C2030     Br2042   1.931       .  S
C2031      C2032   1.406       .  A
C2031     Br2046   1.931       .  S
C2032      C2033   1.405   1_545  A
C2032      C2035   1.476       .  S
C2033      C2034   1.403       .  A
C2033     Br2041   1.933       .  S
C2034     Br2045   1.934       .  S
C2035      C2036   1.407       .  A
C2035      C2040   1.409       .  A
C2036      C2037   1.399       .  A
C2036     Br2047   1.933       .  S
C2037      C2038   1.409       .  A
C2037     Br2043   1.927       .  S
C2038      C2039   1.409       .  A
C2039      C2040   1.408       .  A
C2039     Br2048   1.927       .  S
C2040     Br2044   1.928       .  S
C2049      C2050   1.415       .  A
C2049      C2054   1.420       .  A
C2050      C2051   1.409       .  A
C2050     Br2062   1.932       .  S
C2051      C2052   1.410       .  A
C2051     Br2066   1.931       .  S
C2052      C2053   1.408       .  A
C2052      C2055   1.488       .  S
C2053      C2054   1.408       .  A
C2053     Br2061   1.933       .  S
C2054     Br2065   1.934       .  S
C2055      C2056   1.410       .  A
C2055      C2060   1.413       .  A
C2056      C2057   1.407       .  A
C2056     Br2067   1.930       .  S
C2057      C2058   1.411       .  A
C2057     Br2063   1.930       .  S
C2058      C2059   1.407       .  A
C2059      C2060   1.407       .  A
C2059     Br2068   1.928       .  S
C2060     Br2064   1.930       .  S
C2069      C2070   1.416       .  A
C2069      C2074   1.421       .  A
C2070      C2071   1.408       .  A
C2070     Br2082   1.932       .  S
C2071      C2072   1.409       .  A
C2071     Br2086   1.930       .  S
C2072      C2073   1.407       .  A
C2072      C2075   1.487       .  S
C2073      C2074   1.408       .  A
C2073     Br2081   1.932       .  S
C2074     Br2085   1.934       .  S
C2075      C2076   1.411       .  A
C2075      C2080   1.411       .  A
C2076      C2077   1.410       .  A
C2076     Br2087   1.929       .  S
C2077      C2078   1.410       .  A
C2077     Br2083   1.927       .  S
C2078      C2079   1.408       .  A
C2079      C2080   1.405       .  A
C2079     Br2088   1.929       .  S
C2080     Br2084   1.932       .  S
