geometry optimzed in LAMMPS
_audit_creation_date              2020-11-30 
_audit_creation_method            'lammps2cif' 
_symmetry_space_group_name_H-M    'P1' 
_symmetry_Int_Tables_number       1 
_symmetry_cell_setting            triclinic 
loop_ 
_symmetry_equiv_pos_as_xyz 
  x,y,z 
_cell_length_a                    39.79397165 
_cell_length_b                    39.76610656960765 
_cell_length_c                    99.02014615413036 
_cell_angle_alpha                 89.86744096127292 
_cell_angle_beta                  90.13981999428958 
_cell_angle_gamma                 120.45341380833247 
loop_ 
_atom_site_label 
_atom_site_type_symbol 
_atom_site_fract_x 
_atom_site_fract_y 
_atom_site_fract_z 
_atom_site_charge 
C1          C  0.64560900  0.07850445  0.73083342     0.04800
C2          C  0.61277766  0.04434661  0.72599985    -0.11300
C3          C  0.61492137  0.02714763  0.71388577     0.02300
C4          C  0.64973640  0.04462501  0.70651915    -0.09900
C5          C  0.68264043  0.07875877  0.71116910     0.04800
C6          C  0.68028227  0.09558003  0.72329460    -0.09300
H7          H  0.58605991  0.03055514  0.73182385     0.10400
H8          H  0.65115737  0.03149568  0.69711573     0.07900
H9          H  0.70573484  0.12170981  0.72701319     0.07800
C10         C  0.97609954  0.16609474  0.64721136     0.04800
C11         C  0.94044437  0.15666490  0.65317597    -0.11300
C12         C  0.93966289  0.17690352  0.66464408     0.02300
C13         C  0.97467903  0.20699032  0.66999342    -0.09900
C14         C  0.01025219  0.21726743  0.66382370     0.04800
C15         C  0.01093925  0.19643703  0.65254071    -0.09300
H16         H  0.91343051  0.13348438  0.64895478     0.10400
H17         H  0.97409947  0.22340389  0.67862967     0.07900
H18         H  0.03839774  0.20475422  0.64762682     0.07800
C19         C  0.53871284  0.88549054  0.82865105     0.04800
C20         C  0.51636285  0.86542050  0.81728331    -0.11300
C21         C  0.51560206  0.83163108  0.81268407     0.02300
C22         C  0.53622991  0.81734969  0.81980473    -0.09900
C23         C  0.55920236  0.83738764  0.83096789     0.04800
C24         C  0.56016476  0.87134940  0.83542542    -0.09300
H25         H  0.50117221  0.87714630  0.81167323     0.10400
H26         H  0.53489480  0.79072176  0.81650210     0.07900
H27         H  0.57828184  0.88729094  0.84397472     0.07800
C28         C  0.76125175  0.75127438  0.89770677     0.04800
C29         C  0.73859225  0.76261461  0.89024760    -0.11300
C30         C  0.71521268  0.73967258  0.87949764     0.02300
C31         C  0.71411073  0.70479345  0.87635498    -0.09900
C32         C  0.73709206  0.69326214  0.88354305     0.04800
C33         C  0.76065142  0.71674037  0.89420558    -0.09300
H34         H  0.73928743  0.78946681  0.89277154     0.10400
H35         H  0.69565625  0.68685648  0.86816819     0.07900
H36         H  0.77854986  0.70817074  0.89980001     0.07800
C37         C  0.88935788  0.56593898  0.49313805     0.04800
C38         C  0.86723659  0.54665383  0.48168114    -0.11300
C39         C  0.86521303  0.51224723  0.47709821     0.02300
C40         C  0.88557846  0.49743085  0.48422352    -0.09900
C41         C  0.90792971  0.51689486  0.49560947     0.04800
C42         C  0.90968424  0.55105083  0.50004907    -0.09300
H43         H  0.85244566  0.55902453  0.47619798     0.10400
H44         H  0.88387910  0.47058029  0.48101037     0.07900
H45         H  0.92701819  0.56615755  0.50885343     0.07800
C46         C  0.10347324  0.41811565  0.56094472     0.04800
C47         C  0.08255566  0.43222757  0.55397569    -0.11300
C48         C  0.06238711  0.41427324  0.54207684     0.02300
C49         C  0.06289797  0.38134030  0.53719936    -0.09900
C50         C  0.08338406  0.36650380  0.54421120     0.04800
C51         C  0.10408830  0.38543727  0.55599344    -0.09300
H52         H  0.08163505  0.45712879  0.55795035     0.10400
H53         H  0.04683124  0.36687358  0.52812405     0.07900
H54         H  0.11990307  0.37418464  0.56148745     0.07800
C55         C  0.65705743  0.49848083  0.98243732     0.04800
C56         C  0.69111981  0.53264720  0.98629626    -0.11300
C57         C  0.69174745  0.55297105  0.99799419     0.02300
C58         C  0.65757478  0.53847396  0.00577428    -0.09900
C59         C  0.62367545  0.50375278  0.00208705     0.04800
C60         C  0.62370980  0.48381275  0.99046317    -0.09300
H61         H  0.71704558  0.54333202  0.98014104     0.10400
H62         H  0.65713470  0.55428659  0.01460474     0.07900
H63         H  0.59727401  0.45756638  0.98738164     0.07800
C64         C  0.33287575  0.40628546  0.06947037     0.04800
C65         C  0.36814694  0.41857468  0.06271739    -0.11300
C66         C  0.36948242  0.39835697  0.05135853     0.02300
C67         C  0.33518876  0.36561933  0.04677314    -0.09900
C68         C  0.29976986  0.35303721  0.05345998     0.04800
C69         C  0.29877746  0.37316978  0.06490862    -0.09300
H70         H  0.39447028  0.44430027  0.06618303     0.10400
H71         H  0.33605529  0.34976109  0.03801779     0.07900
H72         H  0.27128689  0.36394628  0.06994540     0.07800
C73         C  0.96998360  0.74638054  0.39791974     0.04800
C74         C  0.93631546  0.71330188  0.39310795    -0.11300
C75         C  0.93682308  0.69662645  0.38066847     0.02300
C76         C  0.97149046  0.71320130  0.37314645    -0.09900
C77         C  0.00556936  0.74568280  0.37805250     0.04800
C78         C  0.00455434  0.76233662  0.39039447    -0.09300
H79         H  0.90965864  0.70089003  0.39895307     0.10400
H80         H  0.97240255  0.69981478  0.36373550     0.07900
H81         H  0.03076945  0.78754534  0.39420688     0.07800
C82         C  0.29691625  0.83802715  0.30952148     0.04800
C83         C  0.26164944  0.82276779  0.31658313    -0.11300
C84         C  0.25845409  0.84270629  0.32772406     0.02300
C85         C  0.29120752  0.87768845  0.33195206    -0.09900
C86         C  0.32685903  0.89313465  0.32506675     0.04800
C87         C  0.32937694  0.87324348  0.31373862    -0.09300
H88         H  0.23647825  0.79582005  0.31321105     0.10400
H89         H  0.28904555  0.89260524  0.34076193     0.07900
H90         H  0.35651984  0.88507214  0.30820789     0.07800
C91         C  0.22449912  0.18758289  0.14077214     0.04800
C92         C  0.22284486  0.21913391  0.14619958    -0.11300
C93         C  0.24259119  0.23679293  0.15820957     0.02300
C94         C  0.26472856  0.22299044  0.16465326    -0.09900
C95         C  0.26665938  0.19153652  0.15920330     0.04800
C96         C  0.24663029  0.17399948  0.14724131    -0.09300
H97         H  0.20608445  0.22988665  0.14104029     0.10400
H98         H  0.27934626  0.23577082  0.17411756     0.07900
H99         H  0.24750045  0.14917862  0.14315475     0.07800
C100        C  0.44983029  0.08462615  0.22699186     0.04800
C101        C  0.44871145  0.05051324  0.22254349    -0.11300
C102        C  0.42638794  0.03027993  0.21120386     0.02300
C103        C  0.40650645  0.04518569  0.20397893    -0.09900
C104        C  0.40764627  0.07918662  0.20824637     0.04800
C105        C  0.42902417  0.09859986  0.21977630    -0.09300
H106        H  0.46430764  0.03912726  0.22808178     0.10400
H107        H  0.38945444  0.02986236  0.19515669     0.07900
H108        H  0.42887554  0.12435092  0.22323837     0.07800
C109        C  0.10425603  0.63868718  0.81086798     0.04800
C110        C  0.11586176  0.67560028  0.81629437    -0.11300
C111        C  0.09631571  0.67942008  0.82740687     0.02300
C112        C  0.06497151  0.64597014  0.83314609    -0.09900
C113        C  0.05210105  0.60886406  0.82760886     0.04800
C114        C  0.07233591  0.60545433  0.81655027    -0.09300
H115        H  0.14035046  0.70138792  0.81192797     0.10400
H116        H  0.04999765  0.64901915  0.84176441     0.07900
H117        H  0.06224566  0.57720866  0.81195966     0.07800
C118        C  0.18071063  0.96938954  0.89174779     0.04800
C119        C  0.16567496  0.93736451  0.88295733    -0.11300
C120        C  0.18547495  0.93886174  0.87108606     0.02300
C121        C  0.22020854  0.97329212  0.86785979    -0.09900
C122        C  0.23548721  0.00590238  0.87643206     0.04800
C123        C  0.21531927  0.00375507  0.88832659    -0.09300
H124        H  0.13921049  0.91064774  0.88563024     0.10400
H125        H  0.23602053  0.97419710  0.85884924     0.07900
H126        H  0.22706258  0.02849418  0.89510841     0.07800
C127        C  0.77229151  0.75119070  0.64709785     0.04800
C128        C  0.73774770  0.74896092  0.65171569    -0.11300
C129        C  0.71837753  0.72654908  0.66323936     0.02300
C130        C  0.73404248  0.70653624  0.67001532    -0.09900
C131        C  0.76800987  0.70832646  0.66537725     0.04800
C132        C  0.78732289  0.73101425  0.65410625    -0.09300
H133        H  0.72549085  0.76372044  0.64615231     0.10400
H134        H  0.72002871  0.68969880  0.67901440     0.07900
H135        H  0.81401296  0.73265719  0.65072348     0.07800
C136        C  0.86706598  0.51933244  0.73307076     0.04800
C137        C  0.85614505  0.54255131  0.72596988    -0.11300
C138        C  0.87615564  0.56239657  0.71428023     0.02300
C139        C  0.90771558  0.55883419  0.70982538    -0.09900
C140        C  0.91808035  0.53421894  0.71663099     0.04800
C141        C  0.89732891  0.51439961  0.72828225    -0.09300
H142        H  0.83115853  0.54416281  0.72940906     0.10400
H143        H  0.92422567  0.57529603  0.70108825     0.07900
H144        H  0.90425107  0.49477316  0.73356142     0.07800
C145        C  0.44737035  0.29276293  0.48130579     0.04800
C146        C  0.46378265  0.32711362  0.48891329    -0.11300
C147        C  0.44460434  0.32999365  0.50029838     0.02300
C148        C  0.40929528  0.29743884  0.50436724    -0.09900
C149        C  0.39295518  0.26264320  0.49692214     0.04800
C150        C  0.41211138  0.26041704  0.48539183    -0.09300
H151        H  0.49118033  0.35205613  0.48573587     0.10400
H152        H  0.39370060  0.29962594  0.51296351     0.07900
H153        H  0.39910044  0.23392998  0.47942410     0.07800
C154        C  0.52543033  0.62143065  0.56466420     0.04800
C155        C  0.56110051  0.65502648  0.56154635    -0.11300
C156        C  0.58439948  0.65438546  0.55104644     0.02300
C157        C  0.57174444  0.61988360  0.54369347    -0.09900
C158        C  0.53616319  0.58638551  0.54673103     0.04800
C159        C  0.51288416  0.58739221  0.55709236    -0.09300
H160        H  0.57108320  0.68129595  0.56747511     0.10400
H161        H  0.58962175  0.61901409  0.53561290     0.07900
H162        H  0.48587543  0.56108924  0.55968738     0.07800
C163        C  0.39264509  0.05567329  0.99687569     0.04800
C164        C  0.41064869  0.07678813  0.98504793    -0.11300
C165        C  0.44500277  0.07933444  0.98023508     0.02300
C166        C  0.46106369  0.06000008  0.98715206    -0.09900
C167        C  0.44319820  0.03824006  0.99881964     0.04800
C168        C  0.40929880  0.03660220  0.00373951    -0.09300
H169        H  0.39786321  0.09111451  0.97951914     0.10400
H170        H  0.48734701  0.06155991  0.98335158     0.07900
H171        H  0.39564819  0.02007397  0.01282281     0.07800
C172        C  0.58474292  0.85639663  0.05010420     0.04800
C173        C  0.57150677  0.87732440  0.04256356    -0.11300
C174        C  0.53798252  0.87798056  0.04647570     0.02300
C175        C  0.51718458  0.85679541  0.05788378    -0.09900
C176        C  0.52970082  0.83529230  0.06548722     0.04800
C177        C  0.56379801  0.83545815  0.06157636    -0.09300
H178        H  0.58773126  0.89367187  0.03375329     0.10400
H179        H  0.49189864  0.85815805  0.06111445     0.07900
H180        H  0.57379974  0.81896986  0.06732418     0.07800
C181        C  0.19405245  0.16148814  0.39638281     0.04800
C182        C  0.17754625  0.18012561  0.38928576    -0.11300
C183        C  0.19448064  0.20014792  0.37727924     0.02300
C184        C  0.22792917  0.20136088  0.37230493    -0.09900
C185        C  0.24491957  0.18328056  0.37942723     0.04800
C186        C  0.22799252  0.16343526  0.39149807    -0.09300
H187        H  0.15161390  0.17921116  0.39313904     0.10400
H188        H  0.24142244  0.21741415  0.36311689     0.07900
H189        H  0.24089069  0.14910574  0.39696795     0.07800
C190        C  0.09590695  0.39338361  0.31056830     0.04800
C191        C  0.10972573  0.37220971  0.31756907    -0.11300
C192        C  0.08876106  0.34831513  0.32848258     0.02300
C193        C  0.05380538  0.34591336  0.33244281    -0.09900
C194        C  0.03974992  0.36712931  0.32552731     0.04800
C195        C  0.06077883  0.39061511  0.31450713    -0.09300
H196        H  0.13649556  0.37377187  0.31433669     0.10400
H197        H  0.03765964  0.32773986  0.34095624     0.07900
H198        H  0.05024754  0.40730632  0.30916759     0.07800
C199        C  0.85041001  0.28442208  0.22933772     0.04800
C200        C  0.88436211  0.31836757  0.22498324    -0.11300
C201        C  0.90377409  0.31796693  0.21313979     0.02300
C202        C  0.88881139  0.28326060  0.20572033    -0.09900
C203        C  0.85484062  0.24960198  0.20992580     0.04800
C204        C  0.83550027  0.25043855  0.22155635    -0.09300
H205        H  0.89620859  0.34473149  0.23097247     0.10400
H206        H  0.90417872  0.28203981  0.19688212     0.07900
H207        H  0.80931661  0.22413071  0.22475492     0.07800
C208        C  0.77027595  0.95895482  0.14389188     0.04800
C209        C  0.78301821  0.99364213  0.15113638    -0.11300
C210        C  0.76349365  0.99412024  0.16284623     0.02300
C211        C  0.73129295  0.95935178  0.16742434    -0.09900
C212        C  0.71828855  0.92436544  0.16035848     0.04800
C213        C  0.73798078  0.92425727  0.14859856    -0.09300
H214        H  0.80812448  0.02039370  0.14759922     0.10400
H215        H  0.71533234  0.95978185  0.17621510     0.07900
H216        H  0.72765174  0.89744738  0.14296312     0.07800
C217        C  0.53537136  0.62891283  0.31088982     0.04800
C218        C  0.53729590  0.59681421  0.31563186    -0.11300
C219        C  0.55895946  0.60010288  0.32725899     0.02300
C220        C  0.57866367  0.63591402  0.33409215    -0.09900
C221        C  0.57653972  0.66812591  0.32941185     0.04800
C222        C  0.55493222  0.66448174  0.31775776    -0.09300
H223        H  0.52245613  0.56950939  0.31013342     0.10400
H224        H  0.59488089  0.63848179  0.34322099     0.07900
H225        H  0.55342444  0.68931662  0.31400077     0.07800
C226        C  0.75324450  0.95076714  0.40241452     0.04800
C227        C  0.73155489  0.91626286  0.39502805    -0.11300
C228        C  0.71097478  0.91571387  0.38343822     0.02300
C229        C  0.71179994  0.94990408  0.37934836    -0.09900
C230        C  0.73314800  0.98454964  0.38671833     0.04800
C231        C  0.75377116  0.98481865  0.39827310    -0.09300
H232        H  0.73181941  0.89016636  0.39803531     0.10400
H233        H  0.69576797  0.94954298  0.37042892     0.07900
H234        H  0.77078270  0.01164497  0.40389435     0.07800
C235        C  0.46356497  0.30273486  0.72521569     0.04800
C236        C  0.45698300  0.33306922  0.72159033    -0.11300
C237        C  0.43575333  0.33029376  0.70986140     0.02300
C238        C  0.42071053  0.29644871  0.70187019    -0.09900
C239        C  0.42697842  0.26584499  0.70550478     0.04800
C240        C  0.44916261  0.26966501  0.71701732    -0.09300
H241        H  0.46750957  0.35834333  0.72809059     0.10400
H242        H  0.40324285  0.29347800  0.69304951     0.07900
H243        H  0.45358493  0.24592223  0.71998883     0.07800
C244        C  0.20521524  0.96774996  0.64541466     0.04800
C245        C  0.23196141  0.00405641  0.65091905    -0.11300
C246        C  0.25806300  0.00709795  0.66099659     0.02300
C247        C  0.25710803  0.97330690  0.66570490    -0.09900
C248        C  0.23009977  0.93650130  0.66038445     0.04800
C249        C  0.20424587  0.93401994  0.65020799    -0.09300
H250        H  0.23331222  0.03025234  0.64705511     0.10400
H251        H  0.27695843  0.97563811  0.67364820     0.07900
H252        H  0.18393860  0.90597325  0.64579964     0.07800
C253        C  0.68586253  0.05787500  0.49289127     0.04800
C254        C  0.68514785  0.07689196  0.48105855    -0.11300
C255        C  0.65073422  0.07571513  0.47707773     0.02300
C256        C  0.61681298  0.05464221  0.48478525    -0.09900
C257        C  0.61713354  0.03507758  0.49652243     0.04800
C258        C  0.65188752  0.03715495  0.50063890    -0.09300
H259        H  0.71140264  0.09298542  0.47507870     0.10400
H260        H  0.59012485  0.05348310  0.48164098     0.07900
H261        H  0.65232385  0.02204052  0.50970349     0.07800
C262        C  0.32557820  0.84867080  0.56610184     0.04800
C263        C  0.29277456  0.84870558  0.56096730    -0.11300
C264        C  0.29568044  0.86958773  0.54914443     0.02300
C265        C  0.33178651  0.89024062  0.54250230    -0.09900
C266        C  0.36461327  0.88993242  0.54756889     0.04800
C267        C  0.36128900  0.86905416  0.55937709    -0.09300
H268        H  0.26528648  0.83314429  0.56631432     0.10400
H269        H  0.33426656  0.90624048  0.53332346     0.07900
H270        H  0.38658103  0.86891882  0.56340915     0.07800
C271        C  0.64607458  0.49232486  0.22817198     0.04800
C272        C  0.61267603  0.49302969  0.22421041    -0.11300
C273        C  0.61303216  0.51363955  0.21267208     0.02300
C274        C  0.64731881  0.53327100  0.20491373    -0.09900
C275        C  0.68093909  0.53228706  0.20870119     0.04800
C276        C  0.67995446  0.51155876  0.22031300    -0.09300
H277        H  0.58631482  0.47755823  0.23017958     0.10400
H278        H  0.64810736  0.54990575  0.19611506     0.07900
H279        H  0.70609363  0.51173901  0.22354516     0.07800
C280        C  0.98015988  0.74732108  0.14700916     0.04800
C281        C  0.94476958  0.72271286  0.15357705    -0.11300
C282        C  0.94326876  0.69959505  0.16455663     0.02300
C283        C  0.97772479  0.70155589  0.16908258    -0.09900
C284        C  0.01348176  0.72582824  0.16254062     0.04800
C285        C  0.01435864  0.74871133  0.15152145    -0.09300
H286        H  0.91820599  0.72106390  0.14999895     0.10400
H287        H  0.97637784  0.68308949  0.17737783     0.07900
H288        H  0.04167062  0.76763326  0.14642117     0.07800
C289        C  0.88378081  0.25898465  0.99437977     0.04800
C290        C  0.85961840  0.25664309  0.98358121    -0.11300
C291        C  0.86033133  0.29040830  0.97887640     0.02300
C292        C  0.88483564  0.32631985  0.98519448    -0.09900
C293        C  0.90880858  0.32895327  0.99599830     0.04800
C294        C  0.90781641  0.29516643  0.00060397    -0.09300
H295        H  0.84169020  0.22908928  0.97847141     0.10400
H296        H  0.88514966  0.35232735  0.98169553     0.07900
H297        H  0.92640755  0.29718087  0.00895367     0.07800
C298        C  0.08317965  0.65326437  0.04657512     0.04800
C299        C  0.06529927  0.61860007  0.03907245    -0.11300
C300        C  0.06797204  0.58628941  0.04325845     0.02300
C301        C  0.08844958  0.58875042  0.05511979    -0.09900
C302        C  0.10579942  0.62305362  0.06289872     0.04800
C303        C  0.10348396  0.65538368  0.05845079    -0.09300
H304        H  0.04921026  0.61673070  0.02997969     0.10400
H305        H  0.09001216  0.56361397  0.05847707     0.07900
H306        H  0.11626983  0.68175491  0.06447334     0.07800
C307        C  0.34527018  0.39742815  0.83066077     0.04800
C308        C  0.34594540  0.41768371  0.81889234    -0.11300
C309        C  0.31171967  0.41588604  0.81409410     0.02300
C310        C  0.27691812  0.39385011  0.82129599    -0.09900
C311        C  0.27602928  0.37451753  0.83323136     0.04800
C312        C  0.31031800  0.37682070  0.83799053    -0.09300
H313        H  0.37282081  0.43381289  0.81325695     0.10400
H314        H  0.25003667  0.39094963  0.81746787     0.07900
H315        H  0.30939342  0.36120087  0.84709688     0.07800
C316        C  0.98014277  0.17200410  0.89773609     0.04800
C317        C  0.94635757  0.17119063  0.89319922    -0.11300
C318        C  0.94746701  0.19196140  0.88153949     0.02300
C319        C  0.98269810  0.21368607  0.87451884    -0.09900
C320        C  0.01653765  0.21452615  0.87900011     0.04800
C321        C  0.01505098  0.19350279  0.89059502    -0.09300
H322        H  0.91937258  0.15460561  0.89876193     0.10400
H323        H  0.98387135  0.23020387  0.86562761     0.07900
H324        H  0.04126057  0.19448377  0.89422542     0.07800
O325        O  0.62018729  0.21755273  0.81998751    -0.78500
O326        O  0.77239962  0.38263688  0.86334870    -0.80000
O327        O  0.72622697  0.34462978  0.81971724    -0.77000
O328        O  0.73654783  0.26105856  0.84611442    -0.75400
O329        O  0.70272745  0.22556689  0.86452407    -0.77200
O330        O  0.69193180  0.37633412  0.82044023    -0.78100
O331        O  0.77433700  0.35184834  0.84420402    -0.79500
O332        O  0.68672939  0.25289185  0.81983681    -0.79800
Eu333      Eu  0.70726401  0.29953277  0.83890056     2.39200
O334        O  0.70660412  0.29764978  0.86269489    -0.87300
O335        O  0.64954130  0.29560389  0.83108766    -0.90900
C336        C  0.65356678  0.22601673  0.81506650     1.03800
C337        C  0.79074383  0.37880816  0.85326145     1.03600
C338        C  0.71764719  0.36978189  0.81514622     1.03600
C339        C  0.73022371  0.23662185  0.85573941     1.01400
H340        H  0.72557274  0.37758977  0.84399754     0.31200
O341        O  0.70395568  0.35326950  0.84718251    -0.99600
H342        H  0.65475419  0.21975218  0.84330545     0.31200
O343        O  0.65282562  0.24149975  0.84662662    -1.02200
O344        O  0.68034550  0.37142151  0.89048640    -0.79400
O345        O  0.52740249  0.21002143  0.84671340    -0.79000
O346        O  0.68253027  0.41611095  0.84798156    -0.77400
O347        O  0.69531145  0.26257842  0.88973866    -0.80700
O348        O  0.61224392  0.17104848  0.86231085    -0.78600
O349        O  0.60315476  0.32423837  0.81962576    -0.77200
O350        O  0.56331491  0.33106698  0.86319223    -0.78800
O351        O  0.57218984  0.24695062  0.88994512    -0.80700
O352        O  0.59495467  0.36416847  0.84414719    -0.77400
O353        O  0.60523928  0.21390395  0.88930507    -0.80100
O354        O  0.71705262  0.41801388  0.86674553    -0.75800
O355        O  0.57134375  0.25766845  0.81941345    -0.75900
O356        O  0.57801467  0.17041776  0.84372958    -0.75500
O357        O  0.72768407  0.32929409  0.89015194    -0.79000
O358        O  0.61386925  0.33808559  0.89001104    -0.78400
O359        O  0.52585429  0.24248305  0.86552111    -0.76800
Eu360      Eu  0.70417535  0.35171462  0.87096861     2.39800
Eu361      Eu  0.59517819  0.23780292  0.83897566     2.39600
Eu362      Eu  0.64625501  0.34914105  0.83935545     2.38400
Eu363      Eu  0.65134824  0.23959869  0.87026246     2.39900
Eu364      Eu  0.59261132  0.29223065  0.87080086     2.39800
O365        O  0.59432388  0.23723470  0.86270033    -0.91200
O366        O  0.64715956  0.34933424  0.86306530    -0.90100
C367        C  0.64694115  0.36332577  0.89528554     1.04000
C368        C  0.50937116  0.21573798  0.85647899     1.02700
C369        C  0.70489873  0.43392081  0.85814455     1.02100
C370        C  0.71990311  0.29583663  0.89496700     1.04100
C371        C  0.58852860  0.15322818  0.85238967     1.03000
C372        C  0.57896939  0.29079170  0.81441159     1.01900
C373        C  0.56802002  0.35381686  0.85311321     1.01900
C374        C  0.58015638  0.22146646  0.89461917     1.04600
H375        H  0.56806498  0.28931498  0.84368569     0.31900
O376        O  0.59185149  0.29143916  0.84703911    -1.03300
H377        H  0.64922690  0.29358225  0.88829379     0.34000
O378        O  0.64933404  0.29400575  0.87854884    -1.05900
O379        O  0.91064855  0.92199593  0.98579399    -0.78500
O380        O  0.05458937  0.90513681  0.03277087    -0.80000
O381        O  0.03023748  0.92459834  0.98636430    -0.77000
O382        O  0.93440889  0.83811716  0.01082508    -0.75400
O383        O  0.90334824  0.83996524  0.02995078    -0.77200
O384        O  0.06716652  0.99124151  0.98610203    -0.78100
O385        O  0.02128657  0.87397737  0.01365571    -0.79500
O386        O  0.94097523  0.88629264  0.98549440    -0.79800
Eu387      Eu  0.98467006  0.90471189  0.00541409     2.39200
O388        O  0.98515308  0.90506307  0.02920777    -0.87300
O389        O  0.98890065  0.96231338  0.99745872    -0.90900
C390        C  0.91720254  0.89625998  0.98047037     1.03800
C391        C  0.04341119  0.87792011  0.02383215     1.03600
C392        C  0.05676712  0.95723259  0.98125192     1.03600
C393        C  0.90827698  0.82171792  0.02006698     1.01400
H394        H  0.06416398  0.95541242  0.01039859     0.31200
O395        O  0.04268819  0.95801257  0.01359398    -0.99600
H396        H  0.90646082  0.88587703  0.01003888     0.31200
O397        O  0.93048607  0.90770607  0.01333365    -1.02200
O398        O  0.06896697  0.00670130  0.05609441    -0.79400
O399        O  0.91782223  0.01460086  0.01143397    -0.79000
O400        O  0.11381258  0.03033296  0.01136536    -0.77400
O401        O  0.95081640  0.88443188  0.05699858    -0.80700
O402        O  0.86502151  0.89210817  0.03179103    -0.78600
O403        O  0.02689667  0.04217930  0.98631375    -0.77200
O404        O  0.04543628  0.08671922  0.03119483    -0.78800
O405        O  0.94524118  0.00107242  0.05519512    -0.80700
O406        O  0.07786655  0.08387984  0.01263958    -0.77400
O407        O  0.90951084  0.93456553  0.05522998    -0.80100
O408        O  0.11143881  0.99636252  0.03032060    -0.75800
O409        O  0.96030929  0.01202458  0.98679624    -0.75900
O410        O  0.86613101  0.92615592  0.01306594    -0.75500
O411        O  0.01732627  0.91580012  0.05739040    -0.79000
O412        O  0.03751143  0.04124119  0.05607643    -0.78400
O413        O  0.95348410  0.04827180  0.02981560    -0.76800
Eu414      Eu  0.04272649  0.95887069  0.03747205     2.39800
Eu415      Eu  0.93489163  0.96546986  0.00549372     2.39600
Eu416      Eu  0.04735059  0.01586696  0.00537409     2.38400
Eu417      Eu  0.93155455  0.90833826  0.03713672     2.39900
Eu418      Eu  0.99319481  0.02020238  0.03681771     2.39800
O419        O  0.93560162  0.96581121  0.02911178    -0.91200
O420        O  0.04712267  0.01639075  0.02914381    -0.90100
C421        C  0.06257521  0.03309863  0.06096231     1.04000
C422        C  0.92854941  0.04170668  0.02036013     1.02700
C423        C  0.13001392  0.01952148  0.02039117     1.02100
C424        C  0.98345378  0.89173516  0.06238875     1.04100
C425        C  0.84812077  0.90245397  0.02296670     1.03000
C426        C  0.99386753  0.03654727  0.98177466     1.01900
C427        C  0.07298132  0.10254325  0.02234395     1.01900
C428        C  0.91768401  0.96820545  0.05984150     1.04600
H429        H  0.99575684  0.04385119  0.00990326     0.31900
O430        O  0.99351322  0.01986384  0.01312681    -1.03300
H431        H  0.98866410  0.96320365  0.05499940     0.34000
O432        O  0.98898334  0.96278464  0.04525050    -1.05900
O433        O  0.69226198  0.36982716  0.38908043    -0.78500
O434        O  0.68191398  0.20371427  0.34804819    -0.80000
O435        O  0.67433577  0.24437621  0.39008328    -0.77000
O436        O  0.76751433  0.32413965  0.36273515    -0.75400
O437        O  0.77041319  0.35679913  0.34338818    -0.77200
O438        O  0.60768949  0.21104141  0.38956137    -0.78100
O439        O  0.71627130  0.23794125  0.36659437    -0.79500
O440        O  0.72373963  0.33522203  0.39009909    -0.79800
Eu441      Eu  0.69988361  0.28864803  0.37093733     2.39200
O442        O  0.69987761  0.28654812  0.34730249    -0.87300
O443        O  0.64526048  0.29141030  0.37818651    -0.90900
C444        C  0.71641059  0.36140304  0.39459173     1.03800
C445        C  0.70562158  0.21011510  0.35794055     1.03600
C446        C  0.64073488  0.21854346  0.39466017     1.03600
C447        C  0.78593258  0.34542668  0.35241538     1.01400
H448        H  0.63966098  0.20910225  0.36682197     0.31200
O449        O  0.64207306  0.23290433  0.36332444    -0.99600
H450        H  0.72859968  0.36807815  0.36538369     0.31200
O451        O  0.70475184  0.34583111  0.36218027    -1.02200
O452        O  0.60033525  0.21110444  0.31986747    -0.79400
O453        O  0.61297340  0.37783119  0.36099975    -0.79000
O454        O  0.55401049  0.16826668  0.36276784    -0.77400
O455        O  0.72463678  0.31585611  0.31994374    -0.80700
O456        O  0.73214978  0.41254489  0.34452317    -0.78600
O457        O  0.56826172  0.26235781  0.38912575    -0.77200
O458        O  0.52497307  0.25222586  0.34412192    -0.78800
O459        O  0.61682057  0.33414260  0.31852188    -0.80700
O460        O  0.52171310  0.22051779  0.36373815    -0.77400
O461        O  0.68336132  0.36586207  0.31852415    -0.80100
O462        O  0.58750141  0.16588826  0.34443906    -0.75800
O463        O  0.60323491  0.32889420  0.38844443    -0.75900
O464        O  0.69912966  0.41481159  0.36300623    -0.75500
O465        O  0.68898616  0.24920026  0.32093283    -0.79000
O466        O  0.56935899  0.24603613  0.31904889    -0.78400
O467        O  0.57942360  0.34467487  0.34221409    -0.76800
Eu468      Eu  0.64289113  0.23136736  0.33966661     2.39800
Eu469      Eu  0.64955314  0.34822116  0.36942929     2.39600
Eu470      Eu  0.58772422  0.23657773  0.37033584     2.38400
Eu471      Eu  0.70451724  0.34340916  0.33833533     2.39900
Eu472      Eu  0.59326507  0.29197972  0.33808187     2.39800
O473        O  0.65045307  0.34677498  0.34576174    -0.91200
O474        O  0.58878788  0.23507126  0.34672150    -0.90100
C475        C  0.57651861  0.22005110  0.31435879     1.04000
C476        C  0.59056557  0.37262204  0.35084921     1.02700
C477        C  0.55850988  0.15023101  0.35273673     1.02100
C478        C  0.71543067  0.28156260  0.31564614     1.04100
C479        C  0.72571601  0.43123898  0.35387041     1.03000
C480        C  0.57726249  0.29616395  0.39374230     1.01900
C481        C  0.50601015  0.22950669  0.35401416     1.01900
C482        C  0.65025687  0.35819539  0.31343595     1.04600
H483        H  0.56979118  0.29618837  0.36468779     0.31900
O484        O  0.59166272  0.29384962  0.36178097    -1.03300
H485        H  0.64755068  0.28744466  0.32095998     0.34000
O486        O  0.64726926  0.28825138  0.33069968    -1.05900
O487        O  0.36721039  0.74596416  0.69723872    -0.78500
O488        O  0.35100694  0.58241951  0.65270499    -0.80000
O489        O  0.43619328  0.69027706  0.67743535    -0.77000
O490        O  0.35058725  0.70136528  0.65278691    -0.75400
O491        O  0.28417272  0.67013166  0.65225097    -0.77200
O492        O  0.43380898  0.65704831  0.69654132    -0.78100
O493        O  0.38688798  0.64891256  0.65240533    -0.79500
O494        O  0.40024668  0.74306107  0.67891984    -0.79800
Eu495      Eu  0.36954227  0.67465114  0.67179247     2.39200
O496        O  0.31151943  0.62049647  0.66397756    -0.87300
O497        O  0.36898741  0.67611064  0.69543996    -0.90900
C498        C  0.39494889  0.76195646  0.68845832     1.03800
C499        C  0.37691849  0.61519297  0.64744840     1.03600
C500        C  0.45246078  0.68008885  0.68660062     1.03600
C501        C  0.31809576  0.69533030  0.64768756     1.01400
H502        H  0.38661323  0.61427982  0.67663886     0.31200
O503        O  0.36500906  0.61671180  0.67980607    -0.99600
H504        H  0.31863830  0.70330099  0.67571221     0.31200
O505        O  0.31593753  0.67924964  0.67907639    -1.02200
O506        O  0.25515918  0.49624279  0.67843255    -0.79400
O507        O  0.26852058  0.65975057  0.72188765    -0.79000
O508        O  0.37869346  0.56621236  0.69866765    -0.77400
O509        O  0.23367549  0.58005652  0.65198644    -0.80700
O510        O  0.24256845  0.67676892  0.67587558    -0.78600
O511        O  0.38848599  0.66477460  0.72261841    -0.77200
O512        O  0.27408365  0.54332386  0.72274070    -0.78800
O513        O  0.18710417  0.55412464  0.69770422    -0.80700
O514        O  0.34047116  0.57416266  0.72267551    -0.77400
O515        O  0.18987184  0.58805784  0.67864776    -0.80100
O516        O  0.34434245  0.53249155  0.68004384    -0.75800
O517        O  0.35686131  0.69931419  0.72218636    -0.75900
O518        O  0.27626515  0.70874824  0.69479017    -0.75500
O519        O  0.26326494  0.54365408  0.65245535    -0.79000
O520        O  0.22406452  0.49988406  0.69725000    -0.78400
O521        O  0.23377906  0.59321330  0.72267059    -0.76800
Eu522      Eu  0.30653817  0.56258282  0.67217717     2.39800
Eu523      Eu  0.31436392  0.67952300  0.70269130     2.39600
Eu524      Eu  0.36497527  0.61868795  0.70350441     2.38400
Eu525      Eu  0.25790096  0.62507065  0.67131499     2.39900
Eu526      Eu  0.25323972  0.56838933  0.70346374     2.39800
O527        O  0.25660787  0.62540947  0.69503532    -0.91200
O528        O  0.30686565  0.56438568  0.69585096    -0.90100
C529        C  0.22882792  0.48072414  0.68770965     1.04000
C530        C  0.24283112  0.62706175  0.72729660     1.02700
C531        C  0.36780802  0.53835769  0.69000152     1.02100
C532        C  0.24000964  0.55367317  0.64710733     1.04100
C533        C  0.25334539  0.70398921  0.68480451     1.03000
C534        C  0.38100615  0.69050420  0.72741543     1.01900
C535        C  0.30695161  0.54972078  0.72769599     1.01900
C536        C  0.17136516  0.56508340  0.68858856     1.04600
H537        H  0.31083332  0.62277438  0.72084559     0.31900
O538        O  0.31103691  0.62258154  0.71109680    -1.03300
H539        H  0.22858101  0.54521471  0.67643457     0.34000
O540        O  0.25269924  0.56709025  0.67965195    -1.05900
O541        O  0.28750736  0.54712938  0.15360232    -0.78500
O542        O  0.43670007  0.71007361  0.19798298    -0.80000
O543        O  0.39017780  0.66960509  0.15382132    -0.77000
O544        O  0.40223425  0.58921863  0.18173348    -0.75400
O545        O  0.36765868  0.55262603  0.19985842    -0.77200
O546        O  0.35619602  0.70195530  0.15432473    -0.78100
O547        O  0.43882920  0.67857282  0.17904637    -0.79500
O548        O  0.35390360  0.58161240  0.15468022    -0.79800
Eu549      Eu  0.37233369  0.62681495  0.17360755     2.39200
O550        O  0.37098419  0.62528968  0.19723068    -0.87300
O551        O  0.31515976  0.62316383  0.16522731    -0.90900
C552        C  0.32152152  0.55597199  0.14921411     1.03800
C553        C  0.45516455  0.70547336  0.18808392     1.03600
C554        C  0.38121492  0.69428770  0.14906975     1.03600
C555        C  0.39608590  0.56486378  0.19140575     1.01400
H556        H  0.39006011  0.70451594  0.17817650     0.31200
O557        O  0.36824783  0.68037969  0.18140343    -0.99600
H558        H  0.32006058  0.54694367  0.17752485     0.31200
O559        O  0.31768131  0.56849389  0.18079858    -1.02200
O560        O  0.34218356  0.69913155  0.22407747    -0.79400
O561        O  0.19184859  0.53338757  0.17970800    -0.79000
O562        O  0.34975446  0.74351013  0.18087870    -0.77400
O563        O  0.36100242  0.59032790  0.22356334    -0.80700
O564        O  0.27666165  0.49954120  0.19642402    -0.78600
O565        O  0.26759811  0.65297936  0.15370549    -0.77200
O566        O  0.22604325  0.65559623  0.19712355    -0.78800
O567        O  0.23558108  0.57203944  0.22387284    -0.80700
O568        O  0.25959761  0.69139627  0.17866255    -0.77400
O569        O  0.27041634  0.54090772  0.22359527    -0.80100
O570        O  0.38412363  0.74566644  0.19963168    -0.75800
O571        O  0.23613802  0.58647374  0.15319566    -0.75900
O572        O  0.24322184  0.49836638  0.17751845    -0.75500
O573        O  0.39323069  0.65688883  0.22359940    -0.79000
O574        O  0.27548967  0.66274895  0.22370662    -0.78400
O575        O  0.18943870  0.56362121  0.19894147    -0.76800
Eu576      Eu  0.36769334  0.67903819  0.20511385     2.39800
Eu577      Eu  0.26038859  0.56522278  0.17254223     2.39600
Eu578      Eu  0.31055747  0.67596599  0.17339831     2.38400
Eu579      Eu  0.31594027  0.56711489  0.20449390     2.39900
Eu580      Eu  0.25540258  0.61697488  0.20457846     2.39800
O581        O  0.25895358  0.56356847  0.19630423    -0.91200
O582        O  0.31000307  0.67508056  0.19710418    -0.90100
C583        C  0.30819038  0.68957460  0.22873390     1.04000
C584        C  0.17332646  0.53702220  0.18976539     1.02700
C585        C  0.37374108  0.76196320  0.19057205     1.02100
C586        C  0.38649219  0.62378522  0.22838187     1.04100
C587        C  0.25348016  0.48166147  0.18643452     1.03000
C588        C  0.24317627  0.61976224  0.14844280     1.01900
C589        C  0.23189420  0.67976544  0.18741458     1.01900
C590        C  0.24451347  0.54744741  0.22875808     1.04600
H591        H  0.23189706  0.61555491  0.17740373     0.31900
O592        O  0.25573663  0.61784687  0.18080006    -1.03300
H593        H  0.31276638  0.62055631  0.22248173     0.34000
O594        O  0.31291202  0.62092815  0.21272871    -1.05900
O595        O  0.01598993  0.04334319  0.55703309    -0.78500
O596        O  0.86527909  0.87285948  0.51475140    -0.80000
O597        O  0.90024654  0.99742877  0.53069274    -0.77000
O598        O  0.91098317  0.91777982  0.55799041    -0.75400
O599        O  0.94514376  0.88586510  0.55852658    -0.77200
O600        O  0.93241409  0.03066736  0.51166386    -0.78100
O601        O  0.86444698  0.90587526  0.53340594    -0.79500
O602        O  0.94943411  0.00614125  0.55692138    -0.79800
Eu603      Eu  0.93004802  0.95983488  0.53811170     2.39200
O604        O  0.93327608  0.90551439  0.53081481    -0.87300
O605        O  0.98347820  0.01739100  0.52988140    -0.90900
C606        C  0.98205113  0.03329110  0.56182632     1.03800
C607        C  0.84770703  0.87780778  0.52482578     1.03600
C608        C  0.90551273  0.02041455  0.52069565     1.03600
C609        C  0.91971387  0.89365865  0.56337434     1.01400
H610        H  0.90503406  0.95549465  0.51099376     0.31200
O611        O  0.92910309  0.95824016  0.51435433    -0.99600
H612        H  0.98712627  0.96487570  0.55628641     0.31200
O613        O  0.98712927  0.96407891  0.54653969    -1.02200
O614        O  0.95804468  0.88309481  0.48859668    -0.79400
O615        O  0.10838017  0.05194707  0.53121134    -0.79000
O616        O  0.93985744  0.99027263  0.48675194    -0.77400
O617        O  0.95080019  0.84072961  0.53232372    -0.80700
O618        O  0.03433550  0.93540493  0.55849850    -0.78600
O619        O  0.02280119  0.08413122  0.51260919    -0.77200
O620        O  0.06438460  0.00726937  0.48783174    -0.78800
O621        O  0.07620297  0.92990261  0.51590171    -0.80700
O622        O  0.02944838  0.03835517  0.48676792    -0.77400
O623        O  0.04346875  0.89612331  0.53472257    -0.80100
O624        O  0.90812507  0.92377721  0.48739392    -0.75800
O625        O  0.05587645  0.08784521  0.53191801    -0.75900
O626        O  0.06649921  0.00216719  0.55760281    -0.75500
O627        O  0.91731873  0.83880747  0.51332404    -0.79000
O628        O  0.02469229  0.91764851  0.48871082    -0.78400
O629        O  0.11088481  0.01862193  0.51278720    -0.76800
Eu630      Eu  0.93328488  0.90456031  0.50710054     2.39800
Eu631      Eu  0.04065513  0.02165818  0.53830992     2.39600
Eu632      Eu  0.98369000  0.01545123  0.50613619     2.38400
Eu633      Eu  0.99040991  0.90951309  0.53918598     2.39900
Eu634      Eu  0.04475518  0.96531527  0.50750759     2.39800
O635        O  0.04454248  0.96728539  0.53118611    -0.91200
O636        O  0.98768380  0.96136456  0.49891517    -0.90100
C637        C  0.99143430  0.89098765  0.48391824     1.04000
C638        C  0.12657668  0.04664457  0.52146921     1.02700
C639        C  0.91494112  0.95640922  0.48206177     1.02100
C640        C  0.92728393  0.82239011  0.52245344     1.04100
C641        C  0.05916390  0.96952192  0.56302628     1.03000
C642        C  0.04590383  0.10343731  0.52242520     1.01900
C643        C  0.05539863  0.03081964  0.48220055     1.01900
C644        C  0.07126504  0.90731559  0.52600825     1.04600
H645        H  0.06242277  0.04362924  0.51109632     0.31900
O646        O  0.04077853  0.01977398  0.51457163    -1.03300
H647        H  0.99289622  0.88619036  0.51245633     0.34000
O648        O  0.99064686  0.90805336  0.51545603    -1.05900
C649        C  0.98995550  0.15344030  0.93452358     0.14300
C650        C  0.98428632  0.11557977  0.93409012     0.01300
C651        C  0.97545978  0.09565671  0.92169371     0.16300
C652        C  0.97307263  0.11366563  0.90985551     0.25700
C653        C  0.97974271  0.15184418  0.91027698    -0.40600
C654        C  0.98806909  0.17158980  0.92266042     0.32700
C655        C  0.98797543  0.09703438  0.94654120     0.01400
F656        F  0.96898463  0.05872473  0.92110036    -0.12900
F657        F  0.99515412  0.20874885  0.92317688    -0.13500
C658        C  0.96123885  0.08750544  0.95711145     0.16300
C659        C  0.96398228  0.06895499  0.96871651     0.25700
C660        C  0.99362337  0.05953864  0.96998370    -0.40600
C661        C  0.02125458  0.07043846  0.95956335     0.32700
C662        C  0.01823070  0.08876844  0.94789528     0.14400
F663        F  0.93183285  0.09531526  0.95604088    -0.12900
F664        F  0.05033169  0.06212254  0.96042890    -0.13500
F665        F  0.93762418  0.06034433  0.97875697    -0.15700
F666        F  0.04479914  0.09841355  0.93786730    -0.14300
F667        F  0.99829020  0.17313920  0.94638907    -0.14300
F668        F  0.96474552  0.09412498  0.89795499    -0.15700
C669        C  0.86138390  0.20748585  0.88130416     0.14300
C670        C  0.84797192  0.19771718  0.86791581     0.01300
C671        C  0.86694393  0.18506400  0.85909441     0.16300
C672        C  0.89914267  0.18282110  0.86354775     0.25700
C673        C  0.91237066  0.19248042  0.87695184    -0.40600
C674        C  0.89296771  0.20444391  0.88581752     0.32700
C675        C  0.81511238  0.20225977  0.86323753     0.01400
F676        F  0.85418672  0.17468463  0.84620543    -0.12900
F677        F  0.90568390  0.21486906  0.89870849    -0.13500
C678        C  0.81943668  0.22603314  0.85207956     0.16300
C679        C  0.79071386  0.23527401  0.84904456     0.25700
C680        C  0.75737934  0.22148778  0.85731032    -0.40600
C681        C  0.75208201  0.19542678  0.86791777     0.32700
C682        C  0.78044557  0.18570703  0.87072389     0.14400
F683        F  0.85257010  0.24237054  0.84459698    -0.12900
F684        F  0.72018372  0.18027949  0.87601264    -0.13500
F685        F  0.79669635  0.25923697  0.83838986    -0.15700
F686        F  0.77460419  0.16103194  0.88113376    -0.14300
F687        F  0.84479336  0.22144691  0.88990161    -0.14300
F688        F  0.91726325  0.17093678  0.85480286    -0.15700
C689        C  0.34223444  0.51723580  0.75813743     0.14300
C690        C  0.30710871  0.48832584  0.76381384     0.01300
C691        C  0.27176104  0.47892686  0.75749505     0.16300
C692        C  0.27149761  0.49849720  0.74574684     0.25700
C693        C  0.30675456  0.52798426  0.74004717    -0.40600
C694        C  0.34221085  0.53675979  0.74640557     0.32700
C695        C  0.30759467  0.46899327  0.77656098     0.01400
F696        F  0.23740256  0.45048777  0.76266306    -0.12900
F697        F  0.37720742  0.56470732  0.74148101    -0.13500
C698        C  0.28897979  0.47210788  0.78811334     0.16300
C699        C  0.29104768  0.45564059  0.80034816     0.25700
C700        C  0.31131633  0.43512335  0.80123357    -0.40600
C701        C  0.32959534  0.43170083  0.78957586     0.32700
C702        C  0.32798475  0.44873874  0.77739600     0.14400
F703        F  0.26961294  0.49204840  0.78763171    -0.12900
F704        F  0.34795092  0.41076793  0.78981836    -0.13500
F705        F  0.27384140  0.46050810  0.81140604    -0.15700
F706        F  0.34579410  0.44486976  0.76632043    -0.14300
F707        F  0.37675596  0.52742884  0.76420600    -0.14300
F708        F  0.23661404  0.48835542  0.74000299    -0.15700
C709        C  0.44956252  0.42424990  0.83891132     0.14300
C710        C  0.44496727  0.38728834  0.84143515     0.01300
C711        C  0.40764668  0.35403245  0.84028587     0.16300
C712        C  0.37546953  0.35757608  0.83694777     0.25700
C713        C  0.37980513  0.39448490  0.83456864    -0.40600
C714        C  0.41726301  0.42782718  0.83549356     0.32700
C715        C  0.47871831  0.38285957  0.84521492     0.01400
F716        F  0.40245813  0.31782534  0.84206341    -0.12900
F717        F  0.42247776  0.46391365  0.83337364    -0.13500
C718        C  0.47721798  0.36213420  0.85693286     0.16300
C719        C  0.50681637  0.35400539  0.85982646     0.25700
C720        C  0.53918483  0.36700147  0.85113846    -0.40600
C721        C  0.54157377  0.38979205  0.83977006     0.32700
C722        C  0.51150314  0.39720401  0.83679477     0.14400
F723        F  0.44650585  0.34904292  0.86550988    -0.12900
F724        F  0.57230190  0.40392863  0.83116158    -0.13500
F725        F  0.50287653  0.33230265  0.87095448    -0.15700
F726        F  0.51359227  0.41678643  0.82527866    -0.14300
F727        F  0.48519422  0.45693724  0.84000194    -0.14300
F728        F  0.34013031  0.32462664  0.83560588    -0.15700
C729        C  0.17065577  0.29775653  0.83912779     0.14300
C730        C  0.16506369  0.30541791  0.85251435     0.01300
C731        C  0.19656205  0.33509624  0.85975196     0.16300
C732        C  0.23304857  0.35719544  0.85360414     0.25700
C733        C  0.23841739  0.34989638  0.84013607    -0.40600
C734        C  0.20706058  0.31973092  0.83300507     0.32700
C735        C  0.12646388  0.28212273  0.85895440     0.01400
F736        F  0.19197380  0.34241873  0.87279855    -0.12900
F737        F  0.21183432  0.31145016  0.82009884    -0.13500
C738        C  0.10986024  0.24163845  0.86051755     0.16300
C739        C  0.07385288  0.21964002  0.86690498     0.25700
C740        C  0.05370967  0.23770924  0.87170876    -0.40600
C741        C  0.06981321  0.27807577  0.86984405     0.32700
C742        C  0.10609732  0.30018149  0.86358521     0.14400
F743        F  0.12895457  0.22355033  0.85609977    -0.12900
F744        F  0.05090607  0.29621760  0.87441060    -0.13500
F745        F  0.05843988  0.18056822  0.86833299    -0.15700
F746        F  0.12131901  0.33917999  0.86198220    -0.14300
F747        F  0.14061621  0.26942572  0.83190623    -0.14300
F748        F  0.26281643  0.38634337  0.86066390    -0.15700
C749        C  0.19835786  0.65429988  0.12177266     0.14300
C750        C  0.18255133  0.62305143  0.11263659     0.01300
C751        C  0.18616952  0.59030548  0.11538622     0.16300
C752        C  0.20546951  0.58889858  0.12703742     0.25700
C753        C  0.22178649  0.62041219  0.13617154    -0.40600
C754        C  0.21779684  0.65310206  0.13338460     0.32700
C755        C  0.16229543  0.62450481  0.10023190     0.01400
F756        F  0.17167621  0.55993126  0.10660435    -0.12900
F757        F  0.23198317  0.68378952  0.14202924    -0.13500
C758        C  0.18175938  0.65461773  0.09070835     0.16300
C759        C  0.16320773  0.65463761  0.07867025     0.25700
C760        C  0.12494414  0.62444863  0.07593103    -0.40600
C761        C  0.10499401  0.59527470  0.08571652     0.32700
C762        C  0.12349519  0.59532163  0.09774649     0.14400
F763        F  0.21916414  0.68337867  0.09287799    -0.12900
F764        F  0.06726970  0.56705554  0.08372000    -0.13500
F765        F  0.18308494  0.68345593  0.06949644    -0.15700
F766        F  0.10335712  0.56706615  0.10707271    -0.14300
F767        F  0.19425991  0.68576484  0.11959180    -0.14300
F768        F  0.20893026  0.55704205  0.12916373    -0.15700
C769        C  0.03898502  0.71547802  0.03796227     0.14300
C770        C  0.07237069  0.75168918  0.03510961     0.01300
C771        C  0.10928728  0.75516929  0.03584025     0.16300
C772        C  0.11275810  0.72296564  0.03940242     0.25700
C773        C  0.07940003  0.68687026  0.04232279    -0.40600
C774        C  0.04246088  0.68328940  0.04149840     0.32700
C775        C  0.06843096  0.78573284  0.03150076     0.01400
F776        F  0.14190566  0.78964568  0.03294514    -0.12900
F777        F  0.00985195  0.64889718  0.04451302    -0.13500
C778        C  0.08475607  0.81898577  0.03974819     0.16300
C779        C  0.07821049  0.84974840  0.03696232     0.25700
C780        C  0.05502901  0.84788065  0.02579966    -0.40600
C781        C  0.04032191  0.81504699  0.01720415     0.32700
C782        C  0.04688223  0.78439026  0.02007694     0.14400
F783        F  0.10571238  0.82095755  0.05087223    -0.12900
F784        F  0.01855009  0.81175995  0.00616984    -0.13500
F785        F  0.09375761  0.88073491  0.04549246    -0.15700
F786        F  0.03171617  0.75297752  0.01174241    -0.14300
F787        F  0.00307108  0.71161979  0.03767657    -0.14300
F788        F  0.14863505  0.72677539  0.03980135    -0.15700
C789        C  0.85513860  0.15730406  0.00674297     0.14300
C790        C  0.89190398  0.16104846  0.00865609     0.01300
C791        C  0.92563217  0.19656279  0.00551270     0.16300
C792        C  0.92274175  0.22784044  0.00056127     0.25700
C793        C  0.88604450  0.22454783  0.99885295    -0.40600
C794        C  0.85219432  0.18884112  0.00189308     0.32700
C795        C  0.89553566  0.12756206  0.01318000     0.01400
F796        F  0.96149686  0.20066805  0.00690061    -0.12900
F797        F  0.81637025  0.18477185  0.00051254    -0.13500
C798        C  0.87881414  0.09318195  0.00552421     0.16300
C799        C  0.88689014  0.06370898  0.00856106     0.25700
C800        C  0.91304333  0.06862824  0.01908513    -0.40600
C801        C  0.92737355  0.10198348  0.02738252     0.32700
C802        C  0.91858387  0.13105482  0.02444734     0.14400
F803        F  0.85666507  0.08916550  0.99451789    -0.12900
F804        F  0.95129883  0.10755982  0.03800775    -0.13500
F805        F  0.87032261  0.03119527  0.00073962    -0.15700
F806        F  0.93381739  0.16340552  0.03233634    -0.14300
F807        F  0.82215605  0.12328983  0.00979111    -0.14300
F808        F  0.95595122  0.26119911  0.99713018    -0.15700
C809        C  0.76425754  0.26234187  0.92197427     0.14300
C810        C  0.77422533  0.29082657  0.93194595     0.01300
C811        C  0.76724570  0.32161518  0.92966607     0.16300
C812        C  0.75021239  0.32378849  0.91754980     0.25700
C813        C  0.73983884  0.29504100  0.90752795    -0.40600
C814        C  0.74722912  0.26437009  0.90986943     0.32700
C815        C  0.79541305  0.29042999  0.94413229     0.01400
F816        F  0.77708333  0.34961894  0.93918893    -0.12900
F817        F  0.73905190  0.23691591  0.90027162    -0.13500
C818        C  0.83589739  0.31527132  0.94474137     0.16300
C819        C  0.85686711  0.31461794  0.95594485     0.25700
C820        C  0.83763673  0.28927600  0.96682772    -0.40600
C821        C  0.79695170  0.26419986  0.96621443     0.32700
C822        C  0.77594145  0.26477032  0.95489999     0.14400
F823        F  0.85517182  0.33986339  0.93434442    -0.12900
F824        F  0.77754465  0.24002199  0.97669299    -0.13500
F825        F  0.89620122  0.33836645  0.95607310    -0.15700
F826        F  0.73665407  0.24078036  0.95451176    -0.14300
F827        F  0.77213705  0.23317997  0.92381946    -0.14300
F828        F  0.74320707  0.35356041  0.91575782    -0.15700
C829        C  0.04595654  0.49645183  0.02293347     0.14300
C830        C  0.00525863  0.47812690  0.02162222     0.01300
C831        C  0.98553710  0.49546123  0.02739159     0.16300
C832        C  0.00612293  0.53066093  0.03437473     0.25700
C833        C  0.04680019  0.54909151  0.03575691    -0.40600
C834        C  0.06662418  0.53162130  0.03006760     0.32700
C835        C  0.98267938  0.43974248  0.01498685     0.01400
F836        F  0.94617369  0.47800573  0.02633435    -0.12900
F837        F  0.10589068  0.54868729  0.03137199    -0.13500
C838        C  0.95780210  0.40687560  0.02276175     0.16300
C839        C  0.93428331  0.37078930  0.01660139     0.25700
C840        C  0.93496068  0.36701295  0.00250532    -0.40600
C841        C  0.96048919  0.39984272  0.99471885     0.32700
C842        C  0.98427187  0.43598050  0.00093683     0.14400
F843        F  0.95604252  0.40993891  0.03636167    -0.12900
F844        F  0.96262027  0.39680973  0.98112598    -0.13500
F845        F  0.90989753  0.33977205  0.02438730    -0.15700
F846        F  0.00806970  0.46746957  0.99323374    -0.14300
F847        F  0.06541232  0.47974649  0.01760570    -0.14300
F848        F  0.98619781  0.54623873  0.04016987    -0.15700
C849        C  0.18499556  0.73720738  0.17511444     0.14300
C850        C  0.14614232  0.71286464  0.17919054     0.01300
C851        C  0.13639340  0.67940021  0.18684764     0.16300
C852        C  0.16460737  0.66959244  0.19002666     0.25700
C853        C  0.20341845  0.69317823  0.18561144    -0.40600
C854        C  0.21342789  0.72754024  0.17830919     0.32700
C855        C  0.11495521  0.72055145  0.17483594     0.01400
F856        F  0.09890674  0.65500633  0.19066730    -0.12900
F857        F  0.25062617  0.75159297  0.17410693    -0.13500
C858        C  0.10468465  0.71772830  0.16112925     0.16300
C859        C  0.07215270  0.72009233  0.15712826     0.25700
C860        C  0.04941173  0.72569073  0.16676035    -0.40600
C861        C  0.06050446  0.72965350  0.18045693     0.32700
C862        C  0.09290196  0.72698795  0.18444490     0.14400
F863        F  0.12498322  0.71060525  0.15168338    -0.12900
F864        F  0.03994386  0.73605750  0.18999762    -0.13500
F865        F  0.06167135  0.71477973  0.14390085    -0.15700
F866        F  0.10253446  0.73016569  0.19773506    -0.14300
F867        F  0.19530550  0.77014737  0.16792456    -0.14300
F868        F  0.15320111  0.63565926  0.19673069    -0.15700
C869        C  0.96919740  0.81850482  0.12434295     0.14300
C870        C  0.98021054  0.81098628  0.11174717     0.01300
C871        C  0.99152602  0.78288286  0.11082810     0.16300
C872        C  0.99198412  0.76260698  0.12234245     0.25700
C873        C  0.98090335  0.76995544  0.13496354    -0.40600
C874        C  0.96943399  0.79804735  0.13587793     0.32700
C875        C  0.98024027  0.83248509  0.09950783     0.01400
F876        F  0.00187950  0.77493595  0.09872175    -0.12900
F877        F  0.95896456  0.80597005  0.14796994    -0.13500
C878        C  0.01371075  0.86765677  0.09596047     0.16300
C879        C  0.01470056  0.88701450  0.08399506     0.25700
C880        C  0.98207869  0.87143672  0.07526702    -0.40600
C881        C  0.94824800  0.83631628  0.07904565     0.32700
C882        C  0.94746298  0.81707733  0.09103391     0.14400
F883        F  0.04565514  0.88309654  0.10406709    -0.12900
F884        F  0.91615436  0.81992109  0.07100445    -0.13500
F885        F  0.04754394  0.92130226  0.08108464    -0.15700
F886        F  0.91480819  0.78302975  0.09430714    -0.14300
F887        F  0.95812309  0.84554556  0.12543205    -0.14300
F888        F  0.00224600  0.73498685  0.12112103    -0.15700
C889        C  0.65752054  0.42619324  0.25280984     0.14300
C890        C  0.64680954  0.43613463  0.26496412     0.01300
C891        C  0.63543180  0.46420147  0.26508223     0.16300
C892        C  0.63487546  0.48235329  0.25306343     0.25700
C893        C  0.64595165  0.47269020  0.24083594    -0.40600
C894        C  0.65722231  0.44443817  0.24080342     0.32700
C895        C  0.64741271  0.41682992  0.27749794     0.01400
F896        F  0.62496522  0.47396163  0.27682665    -0.12900
F897        F  0.66727174  0.43406206  0.22910923    -0.13500
C898        C  0.68016285  0.43440261  0.28595618     0.16300
C899        C  0.68153089  0.41517517  0.29757812     0.25700
C900        C  0.64992921  0.37812806  0.30088939    -0.40600
C901        C  0.61706989  0.36065578  0.29227316     0.32700
C902        C  0.61593769  0.37995361  0.28067294     0.14400
F903        F  0.71088936  0.47007993  0.28287113    -0.12900
F904        F  0.58626603  0.32456160  0.29489492    -0.13500
F905        F  0.71336397  0.43316862  0.30570381    -0.15700
F906        F  0.58421802  0.36258681  0.27246119    -0.14300
F907        F  0.66836494  0.39885995  0.25263416    -0.14300
F908        F  0.62440276  0.50996735  0.25340189    -0.15700
C909        C  0.48907721  0.56003879  0.18970356     0.14300
C910        C  0.48087423  0.52962575  0.19873616     0.01300
C911        C  0.44409261  0.50940058  0.20487478     0.16300
C912        C  0.41604345  0.51988563  0.20219042     0.25700
C913        C  0.42437822  0.55110853  0.19331526    -0.40600
C914        C  0.46130656  0.57081536  0.18703689     0.32700
C915        C  0.51211176  0.52163161  0.20254700     0.01400
F916        F  0.43555283  0.47980961  0.21363887    -0.12900
F917        F  0.47155595  0.60188242  0.17880919    -0.13500
C918        C  0.52725906  0.52972922  0.21572022     0.16300
C919        C  0.55990060  0.52690950  0.21901252     0.25700
C920        C  0.57791075  0.51577365  0.20917622    -0.40600
C921        C  0.56189391  0.50639515  0.19610528     0.32700
C922        C  0.52921345  0.50930054  0.19281934     0.14400
F923        F  0.51141440  0.54202350  0.22525088    -0.12900
F924        F  0.57764036  0.49401027  0.18657769    -0.13500
F925        F  0.57481446  0.53654751  0.23169658    -0.15700
F926        F  0.51426930  0.50022282  0.18013217    -0.14300
F927        F  0.52491725  0.58073876  0.18398240    -0.14300
F928        F  0.38103182  0.49977318  0.20850645    -0.15700
C929        C  0.86161422  0.65450231  0.19030551     0.14300
C930        C  0.83134140  0.62415955  0.18281478     0.01300
C931        C  0.83876495  0.61772400  0.16946575     0.16300
C932        C  0.87537106  0.64192918  0.16360293     0.25700
C933        C  0.90531756  0.67268350  0.17102547    -0.40600
C934        C  0.89833168  0.67838699  0.18448552     0.32700
C935        C  0.79190230  0.60005437  0.18884892     0.01400
F936        F  0.81021456  0.58871370  0.16197237    -0.12900
F937        F  0.92676802  0.70785240  0.19186377    -0.13500
C938        C  0.77154917  0.61794203  0.19370461     0.16300
C939        C  0.73508864  0.59573080  0.19985658     0.25700
C940        C  0.71811485  0.55514470  0.20122473    -0.40600
C941        C  0.73813625  0.53707367  0.19620993     0.32700
C942        C  0.77464660  0.55931314  0.19002563     0.14400
F943        F  0.78706572  0.65707626  0.19249517    -0.12900
F944        F  0.72235354  0.49787330  0.19735911    -0.13500
F945        F  0.71701729  0.61409812  0.20497598    -0.15700
F946        F  0.79364999  0.54120023  0.18553644    -0.14300
F947        F  0.85556573  0.66099964  0.20328852    -0.14300
F948        F  0.88166891  0.63536503  0.15065687    -0.15700
C949        C  0.35607002  0.76686641  0.61831325     0.14300
C950        C  0.32201173  0.76584571  0.61403072     0.01300
C951        C  0.28689839  0.74228101  0.62079630     0.16300
C952        C  0.28553381  0.71932194  0.63168279     0.25700
C953        C  0.31957051  0.71954641  0.63600401    -0.40600
C954        C  0.35497620  0.74389453  0.62919198     0.32700
C955        C  0.32241630  0.78722592  0.60188312     0.01400
F956        F  0.25376674  0.74125516  0.61673706    -0.12900
F957        F  0.38850690  0.74515261  0.63284367    -0.13500
C958        C  0.31411464  0.76853439  0.58930552     0.16300
C959        C  0.31435991  0.78843073  0.57764999     0.25700
C960        C  0.32286530  0.82715598  0.57849249    -0.40600
C961        C  0.33094775  0.84584625  0.59109195     0.32700
C962        C  0.33069551  0.82589540  0.60277545     0.14400
F963        F  0.30617081  0.73114198  0.58835564    -0.12900
F964        F  0.33952566  0.88344643  0.59200597    -0.13500
F965        F  0.30685932  0.77019806  0.56550940    -0.15700
F966        F  0.33874700  0.84421895  0.61491446    -0.14300
F967        F  0.39028131  0.78970592  0.61179076    -0.14300
F968        F  0.25074864  0.69706065  0.63794894    -0.15700
C969        C  0.19279523  0.83928976  0.53791590     0.14300
C970        C  0.19584980  0.87576553  0.53606432     0.01300
C971        C  0.23190992  0.90992782  0.53809398     0.16300
C972        C  0.26449776  0.90780034  0.54204705     0.25700
C973        C  0.26151557  0.87139716  0.54413233    -0.40600
C974        C  0.22542972  0.83708670  0.54193157     0.32700
C975        C  0.16120992  0.87880872  0.53285158     0.01400
F976        F  0.23510607  0.94542803  0.53677393    -0.12900
F977        F  0.22186496  0.80152116  0.54363044    -0.13500
C978        C  0.13379338  0.87185121  0.54294198     0.16300
C979        C  0.10384953  0.87987248  0.54061811     0.25700
C980        C  0.10051932  0.89478218  0.52802620    -0.40600
C981        C  0.12749036  0.90028639  0.51775076     0.32700
C982        C  0.15757778  0.89252476  0.52019545     0.14400
F983        F  0.13732245  0.85923478  0.55533106    -0.12900
F984        F  0.12546529  0.91401038  0.50538845    -0.13500
F985        F  0.07951414  0.87493666  0.55099401    -0.15700
F986        F  0.18382884  0.89928536  0.51029178    -0.14300
F987        F  0.15818319  0.80593240  0.53592349    -0.14300
F988        F  0.29859545  0.94137888  0.54444214    -0.15700
C989        C  0.60990999  0.15690704  0.42648097     0.14300
C990        C  0.64280485  0.15338114  0.42901125     0.01300
C991        C  0.67435784  0.17045379  0.42001842     0.16300
C992        C  0.67319253  0.19083092  0.40873625     0.25700
C993        C  0.64080534  0.19553577  0.40639299    -0.40600
C994        C  0.60912790  0.17828652  0.41538383     0.32700
C995        C  0.64494998  0.13334988  0.44130496     0.01400
F996        F  0.70691416  0.16838603  0.42234771    -0.12900
F997        F  0.57789836  0.18302092  0.41369339    -0.13500
C998        C  0.65384749  0.10337900  0.44042158     0.16300
C999        C  0.65677730  0.08532308  0.45212455     0.25700
C1000       C  0.64985353  0.09624541  0.46481426    -0.40600
C1001       C  0.64086308  0.12604975  0.46571785     0.32700
C1002       C  0.63895149  0.14482922  0.45406880     0.14400
F1003       F  0.65887289  0.09102723  0.42822082    -0.12900
F1004       F  0.63457560  0.13738365  0.47791963    -0.13500
F1005       F  0.66525833  0.05638351  0.45106703    -0.15700
F1006       F  0.63198971  0.17477999  0.45526759    -0.14300
F1007       F  0.57849740  0.13965427  0.43479148    -0.14300
F1008       F  0.70388899  0.20581086  0.40008451    -0.15700
C1009       C  0.76716197  0.03538106  0.49449417     0.14300
C1010       C  0.78689685  0.05547747  0.50623971     0.01300
C1011       C  0.77478081  0.07825136  0.51313834     0.16300
C1012       C  0.74235923  0.07991349  0.50856553     0.25700
C1013       C  0.72183174  0.05877959  0.49706940    -0.40600
C1014       C  0.73479734  0.03705986  0.48991650     0.32700
C1015       C  0.81876661  0.05071800  0.51159358     0.01400
F1016       F  0.79401817  0.09830697  0.52438125    -0.12900
F1017       F  0.71526963  0.01644942  0.47878887    -0.13500
C1018       C  0.85679787  0.07389405  0.50671294     0.16300
C1019       C  0.88590402  0.06582393  0.51043678     0.25700
C1020       C  0.87711425  0.03383783  0.51890991    -0.40600
C1021       C  0.83926415  0.01219067  0.52444985     0.32700
C1022       C  0.81043524  0.02070482  0.52080882     0.14400
F1023       F  0.86535724  0.10348699  0.49796186    -0.12900
F1024       F  0.82924407  0.98122822  0.53272330    -0.13500
F1025       F  0.92241877  0.08873951  0.50546477    -0.15700
F1026       F  0.77377604  0.99839556  0.52575988    -0.14300
F1027       F  0.77872047  0.01336266  0.48769055    -0.14300
F1028       F  0.73081115  0.10194226  0.51535512    -0.15700
C1029       C  0.45660460  0.91153253  0.52915464     0.14300
C1030       C  0.47429328  0.95188760  0.52691098     0.01300
C1031       C  0.45606070  0.97194521  0.53169244     0.16300
C1032       C  0.42034526  0.95178564  0.53844663     0.25700
C1033       C  0.40247324  0.91135180  0.54054731    -0.40600
C1034       C  0.42103791  0.89143454  0.53596715     0.32700
C1035       C  0.51120298  0.97275240  0.51925934     0.01400
F1036       F  0.47243476  0.01088118  0.52954622    -0.12900
F1037       F  0.40425441  0.85233976  0.53783632    -0.13500
C1038       C  0.51271029  0.96233672  0.50581627     0.16300
C1039       C  0.54736221  0.98224521  0.49846962     0.25700
C1040       C  0.58106310  0.01278772  0.50447903    -0.40600
C1041       C  0.57973973  0.02283028  0.51797653     0.32700
C1042       C  0.54498827  0.00308159  0.52530225     0.14400
F1043       F  0.48035037  0.93334518  0.49973579    -0.12900
F1044       F  0.61188283  0.05244999  0.52393134    -0.13500
F1045       F  0.54814070  0.97152245  0.48551492    -0.15700
F1046       F  0.54434506  0.01337341  0.53831997    -0.14300
F1047       F  0.47390040  0.89164075  0.52475896    -0.14300
F1048       F  0.40339811  0.97176181  0.54309573    -0.15700
C1049       C  0.26428991  0.86611857  0.66974514     0.14300
C1050       C  0.22916558  0.83252024  0.67334007     0.01300
C1051       C  0.19429216  0.83327078  0.67290319     0.16300
C1052       C  0.19453999  0.86718309  0.66883910     0.25700
C1053       C  0.22972243  0.90082095  0.66510252    -0.40600
C1054       C  0.26459675  0.89991370  0.66563544     0.32700
C1055       C  0.22945905  0.79680756  0.67735918     0.01400
F1056       F  0.16015416  0.80134732  0.67659924    -0.12900
F1057       F  0.29887089  0.93136403  0.66174675    -0.13500
C1058       C  0.24908151  0.79677012  0.68911536     0.16300
C1059       C  0.25465463  0.76552091  0.69199287     0.25700
C1060       C  0.24093384  0.73349947  0.68304483    -0.40600
C1061       C  0.21884607  0.73260066  0.67168288     0.32700
C1062       C  0.21331736  0.76404791  0.66888324     0.14400
F1063       F  0.26406561  0.82780069  0.69762157    -0.12900
F1064       F  0.20391844  0.70220176  0.66290947    -0.13500
F1065       F  0.27501388  0.76771579  0.70330632    -0.15700
F1066       F  0.19409258  0.76350936  0.65746116    -0.14300
F1067       F  0.29826786  0.86583084  0.66991522    -0.14300
F1068       F  0.16052248  0.86738700  0.66879099    -0.15700
C1069       C  0.13720371  0.98474474  0.62345269     0.14300
C1070       C  0.14054750  0.96953844  0.61108639     0.01300
C1071       C  0.16310956  0.95168423  0.61024751     0.16300
C1072       C  0.18295385  0.94977488  0.62159031     0.25700
C1073       C  0.18065623  0.96594774  0.63391645    -0.40600
C1074       C  0.15729416  0.98312219  0.63481254     0.32700
C1075       C  0.11968056  0.97116749  0.59906428     0.01400
F1076       F  0.16593172  0.93619769  0.59839544    -0.12900
F1077       F  0.15398269  0.99826435  0.64667741    -0.13500
C1078       C  0.13991691  0.99766409  0.58859453     0.16300
C1079       C  0.12020007  0.99764679  0.57687218     0.25700
C1080       C  0.08011645  0.97084234  0.57547800    -0.40600
C1081       C  0.06009566  0.94429317  0.58600053     0.32700
C1082       C  0.07970832  0.94464433  0.59773635     0.14400
F1083       F  0.17879445  0.02317094  0.58969455    -0.12900
F1084       F  0.02140394  0.91818445  0.58496855    -0.13500
F1085       F  0.14049935  0.02262629  0.56667975    -0.15700
F1086       F  0.05992116  0.91851300  0.60770794    -0.14300
F1087       F  0.11494960  0.00158954  0.62443649    -0.14300
F1088       F  0.20563903  0.93347478  0.62040276    -0.15700
C1089       C  0.45120690  0.43080020  0.70200808     0.14300
C1090       C  0.41280008  0.42242530  0.69985524     0.01300
C1091       C  0.38196058  0.38374957  0.70113532     0.16300
C1092       C  0.38938248  0.35378562  0.70433693     0.25700
C1093       C  0.42785626  0.36200155  0.70633847    -0.40600
C1094       C  0.45868396  0.40084843  0.70522094     0.32700
C1095       C  0.40447179  0.45404938  0.69682896     0.01400
F1096       F  0.34451499  0.37524938  0.69969208    -0.12900
F1097       F  0.49611489  0.40968698  0.70705855    -0.13500
C1098       C  0.38881213  0.45569807  0.68428670     0.16300
C1099       C  0.37800122  0.48372155  0.68184547     0.25700
C1100       C  0.38233677  0.51056527  0.69200093    -0.40600
C1101       C  0.39914253  0.50925677  0.70446528     0.32700
C1102       C  0.41022789  0.48148623  0.70677726     0.14400
F1103       F  0.38388245  0.42997446  0.67439901    -0.12900
F1104       F  0.40359319  0.53381204  0.71471645    -0.13500
F1105       F  0.36312361  0.48428880  0.66954959    -0.15700
F1106       F  0.42524065  0.48039675  0.71899171    -0.14300
F1107       F  0.48146839  0.46797926  0.70091171    -0.14300
F1108       F  0.35886635  0.31693291  0.70595163    -0.15700
C1109       C  0.53022683  0.29694098  0.75126421     0.14300
C1110       C  0.51190519  0.29734767  0.76333681     0.01300
C1111       C  0.47855536  0.30087074  0.76278456     0.16300
C1112       C  0.46364671  0.30390275  0.75035868     0.25700
C1113       C  0.48172217  0.30322190  0.73828091    -0.40600
C1114       C  0.51507643  0.29962903  0.73880249     0.32700
C1115       C  0.52775462  0.29472296  0.77655192     0.01400
F1116       F  0.45982034  0.30028480  0.77430293    -0.12900
F1117       F  0.53293559  0.29881818  0.72724072    -0.13500
C1118       C  0.54022377  0.32529809  0.78586639     0.16300
C1119       C  0.55571174  0.32342025  0.79830709     0.25700
C1120       C  0.55928082  0.29089556  0.80168338    -0.40600
C1121       C  0.54540835  0.25956303  0.79248706     0.32700
C1122       C  0.52994225  0.26160997  0.78000369     0.14400
F1123       F  0.53799849  0.35741819  0.78280322    -0.12900
F1124       F  0.54759033  0.22732448  0.79538471    -0.13500
F1125       F  0.56693189  0.35345965  0.80708324    -0.15700
F1126       F  0.51677752  0.23111752  0.77131129    -0.14300
F1127       F  0.56296478  0.29435420  0.75157000    -0.14300
F1128       F  0.43054606  0.30582339  0.75008581    -0.15700
C1129       C  0.35221099  0.09767371  0.67140755     0.14300
C1130       C  0.33784487  0.11973328  0.67749620     0.01300
C1131       C  0.29749811  0.10509573  0.67781558     0.16300
C1132       C  0.27169558  0.06846901  0.67243880     0.25700
C1133       C  0.28581712  0.04580950  0.66665807    -0.40600
C1134       C  0.32629119  0.06076875  0.66605662     0.32700
C1135       C  0.36412904  0.15662076  0.68452571     0.01400
F1136       F  0.28312418  0.12624615  0.68351250    -0.12900
F1137       F  0.34061676  0.03981137  0.66017926    -0.13500
C1138       C  0.38917916  0.19076189  0.67731653     0.16300
C1139       C  0.41043145  0.22641860  0.68412952     0.25700
C1140       C  0.40694738  0.22816205  0.69821583    -0.40600
C1141       C  0.38299547  0.19353045  0.70541433     0.32700
C1142       C  0.36180016  0.15815099  0.69861685     0.14400
F1143       F  0.39198522  0.18974521  0.66368037    -0.12900
F1144       F  0.37878273  0.19416240  0.71900153    -0.13500
F1145       F  0.43434060  0.25919739  0.67701106    -0.15700
F1146       F  0.33813532  0.12531062  0.70575995    -0.14300
F1147       F  0.39115500  0.11146542  0.67096114    -0.14300
F1148       F  0.23276559  0.05460891  0.67319891    -0.15700
C1149       C  0.72396781  0.07477187  0.38586818     0.14300
C1150       C  0.73675827  0.08858743  0.37270189     0.01300
C1151       C  0.74898471  0.06847537  0.36427712     0.16300
C1152       C  0.74796911  0.03473102  0.36888776     0.25700
C1153       C  0.73494665  0.02073369  0.38202280    -0.40600
C1154       C  0.72317936  0.04114591  0.39051548     0.32700
C1155       C  0.73412225  0.12201531  0.36748151     0.01400
F1156       F  0.76171401  0.08146082  0.35156138    -0.12900
F1157       F  0.70939945  0.02760168  0.40309756    -0.13500
C1158       C  0.75431308  0.15854334  0.37382424     0.16300
C1159       C  0.74713973  0.18832360  0.37014064     0.25700
C1160       C  0.71928368  0.18189877  0.36006413    -0.40600
C1161       C  0.70135210  0.14599931  0.35306816     0.32700
C1162       C  0.70862524  0.11642353  0.35679988     0.14400
F1163       F  0.78018433  0.16496326  0.38386921    -0.12900
F1164       F  0.67487835  0.13828727  0.34311695    -0.13500
F1165       F  0.76659654  0.22288308  0.37678486    -0.15700
F1166       F  0.68867589  0.08128296  0.35054097    -0.14300
F1167       F  0.71065013  0.09294109  0.39400651    -0.14300
F1168       F  0.75990282  0.01576353  0.36055181    -0.15700
C1169       C  0.78170601  0.92714300  0.43610670     0.14300
C1170       C  0.82234447  0.95234757  0.43605189     0.01300
C1171       C  0.84004814  0.97702505  0.42490625     0.16300
C1172       C  0.81747827  0.97664712  0.41400443     0.25700
C1173       C  0.77685693  0.95154940  0.41407209    -0.40600
C1174       C  0.75913977  0.92657046  0.42514854     0.32700
C1175       C  0.84633283  0.95329012  0.44765645     0.01400
F1176       F  0.87933352  0.00096136  0.42448690    -0.12900
F1177       F  0.71991879  0.90210199  0.42542482    -0.13500
C1178       C  0.84830896  0.92012340  0.45119826     0.16300
C1179       C  0.87110812  0.92115533  0.46217583     0.25700
C1180       C  0.89213655  0.95541645  0.46993118    -0.40600
C1181       C  0.89044569  0.98885696  0.46611918     0.32700
C1182       C  0.86773123  0.98765799  0.45514487     0.14400
F1183       F  0.82857977  0.88685133  0.44386166    -0.12900
F1184       F  0.91009301  0.02276315  0.47313289    -0.13500
F1185       F  0.87300732  0.88875411  0.46502966    -0.15700
F1186       F  0.86592967  0.01997573  0.45199587    -0.14300
F1187       F  0.76385187  0.90367070  0.44689184    -0.14300
F1188       F  0.83538161  0.99994410  0.40318303    -0.15700
C1189       C  0.59937622  0.53654852  0.33849475     0.14300
C1190       C  0.56511547  0.50013513  0.33977350     0.01300
C1191       C  0.52882029  0.49693519  0.33753202     0.16300
C1192       C  0.52676892  0.52974221  0.33382416     0.25700
C1193       C  0.56108793  0.56608812  0.33213176    -0.40600
C1194       C  0.59742636  0.56932470  0.33464635     0.32700
C1195       C  0.56751108  0.46533692  0.34308028     0.01400
F1196       F  0.49543186  0.46202573  0.33898147    -0.12900
F1197       F  0.63106760  0.60383148  0.33286082    -0.13500
C1198       C  0.58068836  0.46174701  0.35581705     0.16300
C1199       C  0.58626519  0.43051383  0.35860806     0.25700
C1200       C  0.57890475  0.40225473  0.34860654    -0.40600
C1201       C  0.56417390  0.40535592  0.33595958     0.32700
C1202       C  0.55857417  0.43667065  0.33325921     0.14400
F1203       F  0.58885224  0.48901234  0.36548711    -0.12900
F1204       F  0.55706483  0.37938679  0.32590835    -0.13500
F1205       F  0.59985783  0.42871571  0.37102209    -0.15700
F1206       F  0.54622281  0.44008547  0.32080610    -0.14300
F1207       F  0.63475091  0.54000626  0.34055721    -0.14300
F1208       F  0.49125229  0.52611675  0.33198904    -0.15700
C1209       C  0.51291245  0.63826403  0.27463561     0.14300
C1210       C  0.47260942  0.62348874  0.27524011     0.01300
C1211       C  0.45263126  0.60903716  0.28747715     0.16300
C1212       C  0.47302967  0.61012204  0.29912322     0.25700
C1213       C  0.51348058  0.62565150  0.29856658    -0.40600
C1214       C  0.53328042  0.63927284  0.28626695     0.32700
C1215       C  0.45145026  0.62378746  0.26313643     0.01400
F1216       F  0.41358329  0.59456951  0.28814194    -0.12900
F1217       F  0.57230478  0.65364639  0.28559090    -0.13500
C1218       C  0.43132388  0.59014727  0.25525700     0.16300
C1219       C  0.41051061  0.59012886  0.24388727     0.25700
C1220       C  0.40945920  0.62400747  0.24024747    -0.40600
C1221       C  0.43042954  0.65793796  0.24817047     0.32700
C1222       C  0.45116271  0.65769602  0.25952448     0.14400
F1223       F  0.43200003  0.55734215  0.25858353    -0.12900
F1224       F  0.43041736  0.69124826  0.24514063    -0.13500
F1225       F  0.39185808  0.55700199  0.23641276    -0.15700
F1226       F  0.47061425  0.69046371  0.26713231    -0.14300
F1227       F  0.53239904  0.65182422  0.26280018    -0.14300
F1228       F  0.45358253  0.59676642  0.31097780    -0.15700
C1229       C  0.64308835  0.81026382  0.37377669     0.14300
C1230       C  0.65190354  0.81076909  0.36003042     0.01300
C1231       C  0.67956291  0.84590820  0.35393858     0.16300
C1232       C  0.69843245  0.88019872  0.36151753     0.25700
C1233       C  0.68992353  0.87974466  0.37531883    -0.40600
C1234       C  0.66202669  0.84453461  0.38138573     0.32700
C1235       C  0.63268618  0.77453809  0.35205120     0.01400
F1236       F  0.68821829  0.84690229  0.34063413    -0.12900
F1237       F  0.65294406  0.84346372  0.39464996    -0.13500
C1238       C  0.59266070  0.75625359  0.34921709     0.16300
C1239       C  0.57452055  0.72199147  0.34159980     0.25700
C1240       C  0.59611206  0.70528980  0.33690089    -0.40600
C1241       C  0.63627462  0.72386842  0.33963079     0.32700
C1242       C  0.65445522  0.75833756  0.34713726     0.14400
F1243       F  0.57128412  0.77179551  0.35375515    -0.12900
F1244       F  0.65794073  0.70892476  0.33484116    -0.13500
F1245       F  0.53570666  0.70464558  0.33905063    -0.15700
F1246       F  0.69321600  0.77569647  0.34978171    -0.14300
F1247       F  0.61671522  0.77641449  0.37986332    -0.14300
F1248       F  0.72585633  0.91361441  0.35547834    -0.15700
C1249       C  0.81278892  0.98727362  0.10869057     0.14300
C1250       C  0.82942360  0.96374662  0.10698183     0.01300
C1251       C  0.82559167  0.93771549  0.11732962     0.16300
C1252       C  0.80580083  0.93558529  0.12926826     0.25700
C1253       C  0.78985445  0.95973109  0.13108758    -0.40600
C1254       C  0.79332657  0.98541466  0.12066195     0.32700
C1255       C  0.85062623  0.96609475  0.09440551     0.01400
F1256       F  0.84177673  0.91495376  0.11596566    -0.12900
F1257       F  0.77717903  0.00821347  0.12199418    -0.13500
C1258       C  0.88446517  0.00092715  0.09070605     0.16300
C1259       C  0.90581833  0.00223286  0.07927346     0.25700
C1260       C  0.89368146  0.96851935  0.07133128    -0.40600
C1261       C  0.85845481  0.93428206  0.07474559     0.32700
C1262       C  0.83745507  0.93309735  0.08619094     0.14400
F1263       F  0.89760909  0.03335563  0.09845451    -0.12900
F1264       F  0.84397299  0.90168542  0.06701079    -0.13500
F1265       F  0.93885912  0.03623816  0.07626293    -0.15700
F1266       F  0.80402677  0.89953592  0.08926490    -0.14300
F1267       F  0.81477660  0.01151693  0.09864784    -0.14300
F1268       F  0.80318495  0.91077471  0.13920161    -0.15700
C1269       C  0.64394636  0.84376432  0.18283850     0.14300
C1270       C  0.61171894  0.82512358  0.17413138     0.01300
C1271       C  0.61525057  0.83809897  0.16071223     0.16300
C1272       C  0.65028233  0.86977978  0.15613217     0.25700
C1273       C  0.68244398  0.88878076  0.16487484    -0.40600
C1274       C  0.67909454  0.87533292  0.17824223     0.32700
C1275       C  0.57379490  0.79323226  0.17911053     0.01400
F1276       F  0.58421423  0.82102123  0.15220336    -0.12900
F1277       F  0.70985668  0.89294115  0.18684979    -0.13500
C1278       C  0.55210864  0.80110556  0.18841054     0.16300
C1279       C  0.51426039  0.77206196  0.19195230     0.25700
C1280       C  0.49747779  0.73434182  0.18630766    -0.40600
C1281       C  0.52052343  0.72609341  0.17762045     0.32700
C1282       C  0.55806713  0.75538864  0.17395435     0.14400
F1283       F  0.56681914  0.83762467  0.19348290    -0.12900
F1284       F  0.50650336  0.68986066  0.17238128    -0.13500
F1285       F  0.49340045  0.78172523  0.20027045    -0.15700
F1286       F  0.57886227  0.74703800  0.16511690    -0.14300
F1287       F  0.64125204  0.83142553  0.19579612    -0.14300
F1288       F  0.65218702  0.88317630  0.14336455    -0.15700
C1289       C  0.80214911  0.31023092  0.25724219     0.14300
C1290       C  0.79284060  0.28015039  0.26660323     0.01300
C1291       C  0.80248347  0.25155533  0.26370888     0.16300
C1292       C  0.82163357  0.25325497  0.25168573     0.25700
C1293       C  0.83113973  0.28345485  0.24226980    -0.40600
C1294       C  0.82111050  0.31186963  0.24516140     0.32700
C1295       C  0.77366145  0.27907689  0.27949074     0.01400
F1296       F  0.79397657  0.22238897  0.27266177    -0.12900
F1297       F  0.82860090  0.34052401  0.23611059    -0.13500
C1298       C  0.73568930  0.24860271  0.28227023     0.16300
C1299       C  0.71705260  0.24868664  0.29422711     0.25700
C1300       C  0.73617438  0.27938024  0.30358980    -0.40600
C1301       C  0.77481531  0.30900500  0.30098747     0.32700
C1302       C  0.79326117  0.30893403  0.28900790     0.14400
F1303       F  0.71617415  0.21950049  0.27317341    -0.12900
F1304       F  0.79492786  0.33788317  0.31010488    -0.13500
F1305       F  0.67976621  0.21960170  0.29634916    -0.15700
F1306       F  0.83040479  0.33803026  0.28668286    -0.14300
F1307       F  0.79210565  0.33756844  0.25970928    -0.14300
F1308       F  0.83157324  0.22575756  0.24937245    -0.15700
C1309       C  0.00838029  0.40156957  0.21438926     0.14300
C1310       C  0.01471370  0.41518608  0.20099256     0.01300
C1311       C  0.98404141  0.39726731  0.19161195     0.16300
C1312       C  0.94764678  0.36618794  0.19558672     0.25700
C1313       C  0.94133658  0.35255450  0.20902865    -0.40600
C1314       C  0.97210326  0.37063268  0.21836970     0.32700
C1315       C  0.05360383  0.44774005  0.19692781     0.01400
F1316       F  0.98925942  0.41010870  0.17864143    -0.12900
F1317       F  0.96761174  0.35716663  0.23123704    -0.13500
C1318       C  0.07561614  0.44224725  0.18704021     0.16300
C1319       C  0.11391787  0.47176422  0.18425102     0.25700
C1320       C  0.13103923  0.50757716  0.19131783    -0.40600
C1321       C  0.10800417  0.51342664  0.20078823     0.32700
C1322       C  0.06988790  0.48379132  0.20357923     0.14400
F1323       F  0.06076427  0.40746186  0.18058877    -0.12900
F1324       F  0.12243966  0.54758583  0.20761382    -0.13500
F1325       F  0.13467862  0.46428978  0.17510825    -0.15700
F1326       F  0.04896854  0.49007434  0.21301387    -0.14300
F1327       F  0.03786380  0.41745415  0.22354446    -0.14300
F1328       F  0.91849309  0.34957368  0.18632343    -0.15700
C1329       C  0.79093092  0.15811868  0.19000122     0.14300
C1330       C  0.81329532  0.13983995  0.19028238     0.01300
C1331       C  0.84947351  0.15804260  0.19696075     0.16300
C1332       C  0.86325910  0.19419432  0.20316253     0.25700
C1333       C  0.84097342  0.21246913  0.20281723    -0.40600
C1334       C  0.80464022  0.19417665  0.19629469     0.32700
C1335       C  0.79935114  0.10217949  0.18338873     0.01400
F1336       F  0.87160840  0.14097237  0.19733692    -0.12900
F1337       F  0.78261937  0.21137511  0.19599806    -0.13500
C1338       C  0.79265891  0.09923217  0.16940103     0.16300
C1339       C  0.78075807  0.06402692  0.16274905     0.25700
C1340       C  0.77567781  0.03125042  0.16997120    -0.40600
C1341       C  0.78186480  0.03411297  0.18402538     0.32700
C1342       C  0.79352412  0.06931007  0.19068255     0.14400
F1343       F  0.79831472  0.13070820  0.16214771    -0.12900
F1344       F  0.77738790  0.00306688  0.19126767    -0.13500
F1345       F  0.77351493  0.06177202  0.14927459    -0.15700
F1346       F  0.79890750  0.07130194  0.20427077    -0.14300
F1347       F  0.75558829  0.14071825  0.18381332    -0.14300
F1348       F  0.89795005  0.21102454  0.20978293    -0.15700
C1349       C  0.93876618  0.35418620  0.32505528     0.14300
C1350       C  0.93527119  0.36403202  0.33840687     0.01300
C1351       C  0.96599909  0.37413025  0.34755169     0.16300
C1352       C  0.99973391  0.37452436  0.34341127     0.25700
C1353       C  0.00353322  0.36542602  0.32999713    -0.40600
C1354       C  0.97274308  0.35510806  0.32086271     0.32700
C1355       C  0.89908176  0.36254402  0.34288383     0.01400
F1356       F  0.96354874  0.38420431  0.36044925    -0.12900
F1357       F  0.97521057  0.34492119  0.30797964    -0.13500
C1358       C  0.87725592  0.33794759  0.35356094     0.16300
C1359       C  0.84167099  0.33424271  0.35723076     0.25700
C1360       C  0.82683727  0.35490194  0.35018499    -0.40600
C1361       C  0.84984029  0.38096268  0.33984403     0.32700
C1362       C  0.88553899  0.38465179  0.33625064     0.14400
F1363       F  0.88946158  0.31586838  0.36002223    -0.12900
F1364       F  0.83756280  0.40232746  0.33294054    -0.13500
F1365       F  0.82096395  0.30870200  0.36723596    -0.15700
F1366       F  0.90675662  0.40955322  0.32615527    -0.14300
F1367       F  0.90885552  0.34271783  0.31617581    -0.14300
F1368       F  0.02908863  0.38465363  0.35243058    -0.15700
C1369       C  0.21384985  0.47947083  0.25928376     0.14300
C1370       C  0.18365534  0.48378468  0.26460173     0.01300
C1371       C  0.17376060  0.50918462  0.25834918     0.16300
C1372       C  0.19356394  0.52998175  0.24681566     0.25700
C1373       C  0.22370673  0.52550825  0.24118128    -0.40600
C1374       C  0.23364804  0.49994785  0.24765511     0.32700
C1375       C  0.16139901  0.46087633  0.27643858     0.01400
F1376       F  0.14480361  0.51390639  0.26348505    -0.12900
F1377       F  0.26239705  0.49447340  0.24279211    -0.13500
C1378       C  0.17821761  0.46988054  0.28936812     0.16300
C1379       C  0.15665554  0.44828128  0.30056307     0.25700
C1380       C  0.11799682  0.41762165  0.29893002    -0.40600
C1381       C  0.10110940  0.40898174  0.28600942     0.32700
C1382       C  0.12276511  0.43035251  0.27482158     0.14400
F1383       F  0.21527859  0.49984170  0.29113402    -0.12900
F1384       F  0.06403218  0.37909716  0.28419956    -0.13500
F1385       F  0.17323857  0.45753244  0.31302090    -0.15700
F1386       F  0.10634174  0.42087026  0.26234785    -0.14300
F1387       F  0.22362099  0.45477727  0.26522377    -0.14300
F1388       F  0.18278467  0.55426923  0.24119382    -0.15700
C1389       C  0.09918087  0.10189734  0.45286227     0.14300
C1390       C  0.11770924  0.08549912  0.44568705     0.01300
C1391       C  0.11602425  0.05159461  0.45044479     0.16300
C1392       C  0.09580150  0.03393341  0.46227522     0.25700
C1393       C  0.07662482  0.04991067  0.46957745    -0.40600
C1394       C  0.07870831  0.08426697  0.46472786     0.32700
C1395       C  0.13809165  0.10331424  0.43301770     0.01400
F1396       F  0.13386025  0.03546828  0.44356295    -0.12900
F1397       F  0.06167128  0.10127112  0.47155298    -0.13500
C1398       C  0.17771694  0.13207831  0.43315409     0.16300
C1399       C  0.19643822  0.15046841  0.42114007     0.25700
C1400       C  0.17557672  0.14011804  0.40890693    -0.40600
C1401       C  0.13628356  0.11020906  0.40876063     0.32700
C1402       C  0.11766245  0.09187741  0.42076097     0.14400
F1403       F  0.19794639  0.14268982  0.44494928    -0.12900
F1404       F  0.11604083  0.09881696  0.39697375    -0.13500
F1405       F  0.23441360  0.17932605  0.42151020    -0.15700
F1406       F  0.07959396  0.06324663  0.42047700    -0.14300
F1407       F  0.10101286  0.13504152  0.44833892    -0.14300
F1408       F  0.09474449  0.00085205  0.46642355    -0.15700
C1409       C  0.34916906  0.20690652  0.37783549     0.14300
C1410       C  0.35085317  0.19428192  0.36476160     0.01300
C1411       C  0.31776304  0.17817815  0.35645070     0.16300
C1412       C  0.28296133  0.17412048  0.36128354     0.25700
C1413       C  0.28113355  0.18636980  0.37443691    -0.40600
C1414       C  0.31446586  0.20281032  0.38267778     0.32700
C1415       C  0.38741452  0.19787337  0.36003343     0.01400
F1416       F  0.31908965  0.16588821  0.34378692    -0.12900
F1417       F  0.31362946  0.21574678  0.39528423    -0.13500
C1418       C  0.40233810  0.17702002  0.36662379     0.16300
C1419       C  0.44010572  0.18524393  0.36396397     0.25700
C1420       C  0.46370582  0.21489987  0.35472808    -0.40600
C1421       C  0.44726626  0.23350579  0.34731073     0.32700
C1422       C  0.40936454  0.22500957  0.34999370     0.14400
F1423       F  0.38078521  0.14984645  0.37610120    -0.12900
F1424       F  0.46850579  0.26187234  0.33813123    -0.13500
F1425       F  0.45393714  0.16519327  0.37084793    -0.15700
F1426       F  0.39512264  0.24526602  0.34347648    -0.14300
F1427       F  0.38143130  0.22379302  0.38580657    -0.14300
F1428       F  0.25083466  0.15752967  0.35325999    -0.15700
C1429       C  0.16125883  0.27170934  0.36977756     0.14300
C1430       C  0.14824086  0.26203865  0.35638289     0.01300
C1431       C  0.14992938  0.23148705  0.34993497     0.16300
C1432       C  0.16487301  0.21114010  0.35677031     0.25700
C1433       C  0.17800676  0.22095802  0.37014202    -0.40600
C1434       C  0.17598991  0.25124122  0.37662546     0.32700
C1435       C  0.13299716  0.28396555  0.34916711     0.01400
F1436       F  0.13762906  0.22179233  0.33697173    -0.12900
F1437       F  0.18902346  0.26145180  0.38949766    -0.13500
C1438       C  0.15684064  0.32433940  0.34719304     0.16300
C1439       C  0.14225247  0.34530393  0.34059354     0.25700
C1440       C  0.10370046  0.32612514  0.33575532    -0.40600
C1441       C  0.07984754  0.28567526  0.33773366     0.32700
C1442       C  0.09441446  0.26476120  0.34441955     0.14400
F1443       F  0.19438940  0.34337345  0.35155835    -0.12900
F1444       F  0.04270846  0.26631287  0.33297668    -0.13500
F1445       F  0.16556041  0.38449749  0.33913941    -0.15700
F1446       F  0.07073986  0.22584196  0.34643493    -0.14300
F1447       F  0.15929801  0.30073347  0.37625081    -0.14300
F1448       F  0.16611458  0.18154964  0.35042590    -0.15700
C1449       C  0.65852046  0.84619060  0.02906456     0.14300
C1450       C  0.69173906  0.86409383  0.03736363     0.01300
C1451       C  0.68913840  0.87797523  0.05015541     0.16300
C1452       C  0.65404961  0.87469139  0.05444642     0.25700
C1453       C  0.62101919  0.85736165  0.04603122    -0.40600
C1454       C  0.62347007  0.84292680  0.03335037     0.32700
C1455       C  0.72956633  0.86989644  0.03249239     0.01400
F1456       F  0.72101377  0.89602448  0.05826957    -0.12900
F1457       F  0.59183232  0.82571416  0.02511322    -0.13500
C1458       C  0.74873354  0.89491308  0.02155963     0.16300
C1459       C  0.78635423  0.90380204  0.01784454     0.25700
C1460       C  0.80561671  0.88768824  0.02501933    -0.40600
C1461       C  0.78474108  0.86010517  0.03530855     0.32700
C1462       C  0.74741016  0.85175991  0.03907765     0.14400
F1463       F  0.73170205  0.91227538  0.01488114    -0.12900
F1464       F  0.80061591  0.84165707  0.04201974    -0.13500
F1465       F  0.80432216  0.92946808  0.00759142    -0.15700
F1466       F  0.72880707  0.82625133  0.04932462    -0.14300
F1467       F  0.66011260  0.83190163  0.01679771    -0.14300
F1468       F  0.65275742  0.88996504  0.06655499    -0.15700
C1469       C  0.42356629  0.71393541  0.11394461     0.14300
C1470       C  0.44243090  0.75479899  0.11329133     0.01300
C1471       C  0.44000279  0.77569540  0.12430381     0.16300
C1472       C  0.41918537  0.75593215  0.13588206     0.25700
C1473       C  0.40117954  0.71511609  0.13665417    -0.40600
C1474       C  0.40329401  0.69423597  0.12557878     0.32700
C1475       C  0.46476947  0.77548033  0.10111161     0.01400
F1476       F  0.45768701  0.81518417  0.12379714    -0.12900
F1477       F  0.38520273  0.65468756  0.12597144    -0.13500
C1478       C  0.44546117  0.77086001  0.08878527     0.16300
C1479       C  0.46657628  0.78977970  0.07717017     0.25700
C1480       C  0.50749163  0.81373900  0.07769448    -0.40600
C1481       C  0.52673734  0.81815413  0.09009121     0.32700
C1482       C  0.50550298  0.79921658  0.10170237     0.14400
F1483       F  0.40603132  0.74833041  0.08806163    -0.12900
F1484       F  0.56598987  0.84169298  0.09106574    -0.13500
F1485       F  0.44701587  0.78427061  0.06536614    -0.15700
F1486       F  0.52470291  0.80378986  0.11352852    -0.14300
F1487       F  0.42540320  0.69321367  0.10338251    -0.14300
F1488       F  0.41764542  0.77667756  0.14649613    -0.15700
C1489       C  0.46211213  0.11112806  0.94360197     0.14300
C1490       C  0.50131554  0.14133154  0.94387152     0.01300
C1491       C  0.52151248  0.15181005  0.95623553     0.16300
C1492       C  0.50300932  0.13195113  0.96809629     0.25700
C1493       C  0.46393172  0.10150402  0.96780066    -0.40600
C1494       C  0.44352093  0.09145872  0.95548535     0.32700
C1495       C  0.52126808  0.16151359  0.93123534     0.01400
F1496       F  0.55907587  0.18153876  0.95682774    -0.12900
F1497       F  0.40600550  0.06164413  0.95489385    -0.13500
C1498       C  0.50692744  0.18104145  0.92344232     0.16300
C1499       C  0.52570140  0.20009272  0.91151200     0.25700
C1500       C  0.55938833  0.19999044  0.90707739    -0.40600
C1501       C  0.57348595  0.18005675  0.91493045     0.32700
C1502       C  0.55464748  0.16115750  0.92688486     0.14400
F1503       F  0.47501852  0.18227751  0.92752863    -0.12900
F1504       F  0.60593634  0.17930525  0.91123646    -0.13500
F1505       F  0.51056831  0.21844414  0.90431225    -0.15700
F1506       F  0.56883484  0.14209568  0.93417735    -0.14300
F1507       F  0.44221628  0.09988924  0.93174714    -0.14300
F1508       F  0.52310117  0.14269133  0.97991997    -0.15700
C1509       C  0.23040104  0.03141448  0.02621024     0.14300
C1510       C  0.24738292  0.04378248  0.01340166     0.01300
C1511       C  0.22752267  0.05214286  0.00346290     0.16300
C1512       C  0.19072994  0.04707762  0.00609036     0.25700
C1513       C  0.17215188  0.03215156  0.01862744    -0.40600
C1514       C  0.19318584  0.02567128  0.02883274     0.32700
C1515       C  0.28535831  0.04718844  0.01015763     0.01400
F1516       F  0.24315503  0.06374027  0.99095248    -0.12900
F1517       F  0.17778017  0.01350369  0.04133791    -0.13500
C1518       C  0.28873073  0.01372029  0.00954866     0.16300
C1519       C  0.32360430  0.01645469  0.00531945     0.25700
C1520       C  0.35601461  0.05287652  0.00183420    -0.40600
C1521       C  0.35275689  0.08647047  0.00276274     0.32700
C1522       C  0.31765408  0.08355793  0.00676017     0.14400
F1523       F  0.25766050  0.97811752  0.01249293    -0.12900
F1524       F  0.38367235  0.12223662  0.99988666    -0.13500
F1525       F  0.32506820  0.98322860  0.00404252    -0.15700
F1526       F  0.31507276  0.11629053  0.00727366    -0.14300
F1527       F  0.24979026  0.02459496  0.03614612    -0.14300
F1528       F  0.17294265  0.05571717  0.99611013    -0.15700
C1529       C  0.48368757  0.00054485  0.02580892     0.14300
C1530       C  0.48961326  0.97388981  0.01843348     0.01300
C1531       C  0.48103774  0.96899914  0.00457575     0.16300
C1532       C  0.46600675  0.98999258  0.99820227     0.25700
C1533       C  0.45949484  0.01635970  0.00559993    -0.40600
C1534       C  0.46860728  0.02156081  0.01945376     0.32700
C1535       C  0.50241086  0.94939736  0.02537065     0.01400
F1536       F  0.48698200  0.94363239  0.99726112    -0.12900
F1537       F  0.46313224  0.04716673  0.02680237    -0.13500
C1538       C  0.47581237  0.90955767  0.02739561     0.16300
C1539       C  0.48726116  0.88620012  0.03425033     0.25700
C1540       C  0.52571026  0.90234601  0.03904570    -0.40600
C1541       C  0.55227218  0.94231877  0.03701999     0.32700
C1542       C  0.54066235  0.96569816  0.03026214     0.14400
F1543       F  0.43851273  0.89352598  0.02292761    -0.12900
F1544       F  0.58912874  0.95894599  0.04197367    -0.13500
F1545       F  0.46088685  0.84778018  0.03611074    -0.15700
F1546       F  0.56670428  0.00423763  0.02849676    -0.14300
F1547       F  0.49164521  0.00545177  0.03923866    -0.14300
F1548       F  0.45658257  0.98361384  0.98489396    -0.15700
C1549       C  0.49779674  0.62666421  0.60070425     0.14300
C1550       C  0.45825108  0.61481072  0.59931462     0.01300
C1551       C  0.44077592  0.60567863  0.58650588     0.16300
C1552       C  0.46282381  0.60856409  0.57512957     0.25700
C1553       C  0.50255214  0.62056634  0.57648954    -0.40600
C1554       C  0.51984391  0.62950185  0.58936861     0.32700
C1555       C  0.43599576  0.61416454  0.61121447     0.01400
F1556       F  0.40257915  0.59450883  0.58503905    -0.12900
F1557       F  0.55778753  0.63988310  0.59100621    -0.13500
C1558       C  0.44077330  0.64923443  0.61614618     0.16300
C1559       C  0.42123903  0.64953790  0.62776185     0.25700
C1560       C  0.39680351  0.61450710  0.63484192    -0.40600
C1561       C  0.39199299  0.57919275  0.62970834     0.32700
C1562       C  0.41131511  0.57911423  0.61793607     0.14400
F1563       F  0.46461244  0.68335160  0.60967814    -0.12900
F1564       F  0.36925209  0.54475984  0.63614954    -0.13500
F1565       F  0.42643298  0.68434400  0.63197222    -0.15700
F1566       F  0.40661019  0.54493562  0.61323688    -0.14300
F1567       F  0.51487675  0.63519228  0.61308467    -0.14300
F1568       F  0.44562625  0.60022127  0.56276969    -0.15700
C1569       C  0.69180895  0.71815817  0.54345515     0.14300
C1570       C  0.69437098  0.75370862  0.54003248     0.01300
C1571       C  0.66102956  0.75719124  0.54107161     0.16300
C1572       C  0.62535959  0.72517161  0.54501232     0.25700
C1573       C  0.62252598  0.68919231  0.54791975    -0.40600
C1574       C  0.65618754  0.68615812  0.54732579     0.32700
C1575       C  0.73179118  0.78684613  0.53525648     0.01400
F1576       F  0.66272503  0.79120556  0.53781628    -0.12900
F1577       F  0.65458255  0.65218086  0.55058796    -0.13500
C1578       C  0.75089417  0.78232207  0.52410401     0.16300
C1579       C  0.78767605  0.81252037  0.52018396     0.25700
C1580       C  0.80613245  0.84808251  0.52736624    -0.40600
C1581       C  0.78566588  0.85310963  0.53808859     0.32700
C1582       C  0.74911588  0.82271520  0.54203138     0.14400
F1583       F  0.73408193  0.74827689  0.51710493    -0.12900
F1584       F  0.80133434  0.88702965  0.54513120    -0.13500
F1585       F  0.80555894  0.80615018  0.50966021    -0.15700
F1586       F  0.73142739  0.82782530  0.55289680    -0.14300
F1587       F  0.72393686  0.71451439  0.54312124    -0.14300
F1588       F  0.59327714  0.72885951  0.54543821    -0.15700
C1589       C  0.31311317  0.18130917  0.51740939     0.14300
C1590       C  0.28183038  0.16680907  0.50831725     0.01300
C1591       C  0.28701441  0.18339396  0.49543403     0.16300
C1592       C  0.32340383  0.21438175  0.49164379     0.25700
C1593       C  0.35481363  0.22929215  0.50078476    -0.40600
C1594       C  0.34943939  0.21255407  0.51368952     0.32700
C1595       C  0.24314852  0.13566560  0.51251333     0.01400
F1596       F  0.25662130  0.16994597  0.48665911    -0.12900
F1597       F  0.37947648  0.22627414  0.52261072    -0.13500
C1598       C  0.21724114  0.14538015  0.51838910     0.16300
C1599       C  0.17975356  0.11613629  0.52188443     0.25700
C1600       C  0.16766394  0.07667319  0.51945519    -0.40600
C1601       C  0.19404451  0.06704854  0.51375845     0.32700
C1602       C  0.23165040  0.09647047  0.51031552     0.14400
F1603       F  0.22794783  0.18333025  0.52032693    -0.12900
F1604       F  0.18327516  0.02926244  0.51140750    -0.13500
F1605       F  0.15463340  0.12664933  0.52688517    -0.15700
F1606       F  0.25657678  0.08687212  0.50455651    -0.14300
F1607       F  0.30822201  0.16540674  0.52991278    -0.14300
F1608       F  0.32770866  0.23061123  0.47922141    -0.15700
C1609       C  0.49075563  0.32097939  0.44648424     0.14300
C1610       C  0.50335359  0.29424783  0.44424082     0.01300
C1611       C  0.49662242  0.26615977  0.45420409     0.16300
C1612       C  0.47757360  0.26494822  0.46621102     0.25700
C1613       C  0.46574529  0.29224935  0.46848597    -0.40600
C1614       C  0.47220291  0.32003162  0.45850734     0.32700
C1615       C  0.52222950  0.29504545  0.43129832     0.01400
F1616       F  0.50912514  0.24042234  0.45240841    -0.12900
F1617       F  0.45970637  0.34577557  0.46031211    -0.13500
C1618       C  0.55502877  0.32958371  0.42673893     0.16300
C1619       C  0.57197975  0.33062790  0.41427337     0.25700
C1620       C  0.55689840  0.29679633  0.40622760    -0.40600
C1621       C  0.52333635  0.26246984  0.41074857     0.32700
C1622       C  0.50640528  0.26165033  0.42315472     0.14400
F1623       F  0.57127933  0.36215490  0.43453233    -0.12900
F1624       F  0.50643913  0.22950470  0.40315346    -0.13500
F1625       F  0.60372845  0.36456807  0.41031056    -0.15700
F1626       F  0.47404040  0.22822299  0.42712659    -0.14300
F1627       F  0.49563133  0.34750861  0.43688267    -0.14300
F1628       F  0.47148467  0.23779771  0.47573259    -0.15700
C1629       C  0.48425179  0.43761138  0.50613423     0.14300
C1630       C  0.48814968  0.44020506  0.52023478     0.01300
C1631       C  0.47862377  0.40660930  0.52781039     0.16300
C1632       C  0.46466166  0.37066865  0.52135670     0.25700
C1633       C  0.46014905  0.36793387  0.50723824    -0.52600
C1634       C  0.47024170  0.40180269  0.49968557     0.32700
C1635       C  0.50070035  0.47775423  0.52700908     0.01400
F1636       F  0.48195989  0.40848712  0.54147467    -0.12900
F1637       F  0.46542055  0.40005204  0.48607148    -0.13500
C1638       C  0.47805655  0.49558293  0.52577926     0.16300
C1639       C  0.48972757  0.53116525  0.53212602     0.25700
C1640       C  0.52434978  0.54949873  0.53968163    -0.40600
C1641       C  0.54708591  0.53179422  0.54088683     0.32700
C1642       C  0.53526899  0.49604397  0.53462120     0.14400
F1643       F  0.44432375  0.47815187  0.51858680    -0.12900
F1644       F  0.58023697  0.54876488  0.54840033    -0.13500
F1645       F  0.46745431  0.54792080  0.53082260    -0.15700
F1646       F  0.55770357  0.47945544  0.53586465    -0.14300
F1647       F  0.49391884  0.46986200  0.49861142    -0.14300
F1648       F  0.45587489  0.33863765  0.52886987    -0.15700
C1649       C  0.79482296  0.43936981  0.75564006     0.14300
C1650       C  0.80152727  0.45894405  0.76804227     0.01300
C1651       C  0.82939035  0.49895211  0.76880040     0.16300
C1652       C  0.85086808  0.51878005  0.75735710     0.25700
C1653       C  0.84508054  0.49864216  0.74515533    -0.40600
C1654       C  0.81671349  0.45905679  0.74429912     0.32700
C1655       C  0.78053400  0.43694953  0.78022529     0.01400
F1656       F  0.83643884  0.51849350  0.78066406    -0.12900
F1657       F  0.80987975  0.43973420  0.73240024    -0.13500
C1658       C  0.78307435  0.40448112  0.78425843     0.16300
C1659       C  0.76237139  0.38244644  0.79544674     0.25700
C1660       C  0.73909839  0.39289400  0.80306164    -0.40600
C1661       C  0.73707578  0.42596348  0.79904290     0.32700
C1662       C  0.75752013  0.44764143  0.78770480     0.14400
F1663       F  0.80604946  0.39426730  0.77738191    -0.12900
F1664       F  0.71557894  0.43769573  0.80607893    -0.13500
F1665       F  0.76500455  0.35064485  0.79866102    -0.15700
F1666       F  0.75429829  0.47872040  0.78389444    -0.14300
F1667       F  0.76680734  0.40120758  0.75451645    -0.14300
F1668       F  0.87760490  0.55744495  0.75818473    -0.15700
C1669       C  0.01051171  0.52857285  0.71550021     0.14300
C1670       C  0.01525673  0.52647009  0.70154443     0.01300
C1671       C  0.98637869  0.52351223  0.69265706     0.16300
C1672       C  0.95402539  0.52449425  0.69760710     0.25700
C1673       C  0.95042017  0.52925834  0.71153522    -0.40600
C1674       C  0.97860579  0.53033135  0.72046662     0.32700
C1675       C  0.05268759  0.53265854  0.69631851     0.01400
F1676       F  0.99002925  0.52056292  0.67914644    -0.12900
F1677       F  0.97667378  0.53544274  0.73393500    -0.13500
C1678       C  0.06586146  0.50697912  0.69969289     0.16300
C1679       C  0.10396653  0.51653530  0.69658003     0.25700
C1680       C  0.12950584  0.55201513  0.69007388    -0.40600
C1681       C  0.11547247  0.57676665  0.68612696     0.32700
C1682       C  0.07738800  0.56707580  0.68921220     0.14400
F1683       F  0.04214710  0.47320449  0.70634945    -0.12900
F1684       F  0.13936686  0.61176483  0.68017959    -0.13500
F1685       F  0.11613149  0.49148154  0.70019361    -0.15700
F1686       F  0.06545518  0.59267604  0.68608782    -0.14300
F1687       F  0.03814441  0.53144611  0.72427155    -0.14300
F1688       F  0.92635134  0.52104604  0.68875029    -0.15700
C1689       C  0.64268540  0.75248064  0.67419759     0.14300
C1690       C  0.61094378  0.71564994  0.67756414     0.01300
C1691       C  0.61499777  0.68267634  0.67655722     0.16300
C1692       C  0.64969462  0.68621292  0.67180042     0.25700
C1693       C  0.68141122  0.72300529  0.66816743    -0.40600
C1694       C  0.67766298  0.75618349  0.66958182     0.32700
C1695       C  0.57235796  0.71087334  0.68071838     0.01400
F1696       F  0.58466700  0.64670118  0.67960841    -0.12900
F1697       F  0.70799858  0.79226534  0.66666877    -0.13500
C1698       C  0.55272225  0.71960099  0.67080137     0.16300
C1699       C  0.51460475  0.71141976  0.67294912     0.25700
C1700       C  0.49492788  0.69395074  0.68513178    -0.40600
C1701       C  0.51554781  0.68684351  0.69532499     0.32700
C1702       C  0.55376908  0.69503705  0.69308530     0.14400
F1703       F  0.56979632  0.73413163  0.65865618    -0.12900
F1704       F  0.49862904  0.67121612  0.70739250    -0.13500
F1705       F  0.49657429  0.71903358  0.66274296    -0.15700
F1706       F  0.57243632  0.68688714  0.70291998    -0.14300
F1707       F  0.63967273  0.78486338  0.67535036    -0.14300
F1708       F  0.65164410  0.65331835  0.67024183    -0.15700
C1709       C  0.89589007  0.84115963  0.59724036     0.14300
C1710       C  0.86084939  0.83965276  0.60061116     0.01300
C1711       C  0.84549706  0.85611228  0.59179114     0.16300
C1712       C  0.86438293  0.87322086  0.57968356     0.25700
C1713       C  0.89929273  0.87435621  0.57611206    -0.40600
C1714       C  0.91472349  0.85793007  0.58505109     0.32700
C1715       C  0.83827302  0.81760955  0.61261676     0.01400
F1716       F  0.81119738  0.85417560  0.59463547    -0.12900
F1717       F  0.94798084  0.85794658  0.58205741    -0.13500
C1718       C  0.82710121  0.83523783  0.62256700     0.16300
C1719       C  0.80435064  0.81337895  0.63357285     0.25700
C1720       C  0.79289089  0.77373338  0.63485477    -0.40600
C1721       C  0.80360492  0.75613318  0.62474073     0.32700
C1722       C  0.82600892  0.77783972  0.61374890     0.14400
F1723       F  0.83891504  0.87376590  0.62176284    -0.12900
F1724       F  0.79191787  0.71762132  0.62541443    -0.13500
F1725       F  0.79463989  0.83123174  0.64318955    -0.15700
F1726       F  0.83510110  0.75976993  0.60401452    -0.14300
F1727       F  0.91178114  0.82614837  0.60575489    -0.14300
F1728       F  0.84751876  0.88741897  0.57126033    -0.15700
C1729       C  0.83313408  0.68497600  0.68600851     0.14300
C1730       C  0.81290296  0.64403616  0.68542430     0.01300
C1731       C  0.77768299  0.62419679  0.67819509     0.16300
C1732       C  0.76285998  0.64521530  0.67170021     0.25700
C1733       C  0.78330123  0.68615084  0.67228299    -0.40600
C1734       C  0.81851494  0.70590311  0.67942666     0.32700
C1735       C  0.82857560  0.62251354  0.69266546     0.01400
F1736       F  0.75737271  0.58461443  0.67766592    -0.12900
F1737       F  0.83835778  0.74544018  0.68019647    -0.13500
C1738       C  0.83419274  0.62698360  0.70667736     0.16300
C1739       C  0.85172285  0.60926272  0.71354509     0.25700
C1740       C  0.86246967  0.58525922  0.70661098    -0.40600
C1741       C  0.85675346  0.58074766  0.69252741     0.32700
C1742       C  0.84008223  0.59943441  0.68560490     0.14400
F1743       F  0.82233649  0.64836102  0.71373525    -0.12900
F1744       F  0.86620717  0.55741050  0.68551135    -0.13500
F1745       F  0.85842480  0.61581830  0.72700336    -0.15700
F1746       F  0.83547413  0.59530594  0.67200277    -0.14300
F1747       F  0.86721980  0.70464287  0.69292938    -0.14300
F1748       F  0.72880808  0.62578627  0.66474008    -0.15700
C1749       C  0.41155360  0.12262985  0.85598704     0.14300
C1750       C  0.38840443  0.13358923  0.86322733     0.01300
C1751       C  0.40428646  0.17229609  0.86752689     0.16300
C1752       C  0.44325901  0.19972763  0.86478338     0.25700
C1753       C  0.46701324  0.18851997  0.85786454    -0.40600
C1754       C  0.45055046  0.14974991  0.85336460     0.32700
C1755       C  0.34828372  0.10380110  0.86684479     0.01400
F1756       F  0.38214195  0.18330562  0.87452718    -0.12900
F1757       F  0.47269426  0.13736173  0.84713036    -0.13500
C1758       C  0.33939113  0.09033809  0.88018947     0.16300
C1759       C  0.30260695  0.05887011  0.88338738     0.25700
C1760       C  0.27370847  0.04108863  0.87330850    -0.40600
C1761       C  0.28245152  0.05592835  0.86003243     0.32700
C1762       C  0.31965119  0.08657418  0.85680186     0.14400
F1763       F  0.36704051  0.10646221  0.88998515    -0.12900
F1764       F  0.25502671  0.04069037  0.85014978    -0.13500
F1765       F  0.29611305  0.04454722  0.89617460    -0.15700
F1766       F  0.32799084  0.09916903  0.84382079    -0.14300
F1767       F  0.39680002  0.08506081  0.85202073    -0.14300
F1768       F  0.45777493  0.23705610  0.86902033    -0.15700
C1769       C  0.13288283  0.92991929  0.92569221     0.14300
C1770       C  0.12631689  0.95953118  0.93012841     0.01300
C1771       C  0.13698218  0.99216468  0.92187252     0.16300
C1772       C  0.15434609  0.99532277  0.90932398     0.25700
C1773       C  0.16155144  0.96594278  0.90490577    -0.40600
C1774       C  0.15080437  0.93328154  0.91325980     0.32700
C1775       C  0.10925569  0.95698831  0.94353593     0.01400
F1776       F  0.13011007  0.02072951  0.92593306    -0.12900
F1777       F  0.15890044  0.90524259  0.90961325    -0.13500
C1778       C  0.13184995  0.98338831  0.95369364     0.16300
C1779       C  0.11519942  0.98270497  0.96616363     0.25700
C1780       C  0.07564828  0.95560772  0.96864707    -0.40600
C1781       C  0.05353245  0.92813788  0.95861018     0.32700
C1782       C  0.07026398  0.92883047  0.94614545     0.14400
F1783       F  0.17006981  0.00980808  0.95149297    -0.12900
F1784       F  0.01519045  0.90184467  0.96061239    -0.13500
F1785       F  0.13783209  0.00830158  0.97582975    -0.15700
F1786       F  0.04804393  0.90292851  0.93644317    -0.14300
F1787       F  0.12283352  0.89823332  0.93357938    -0.14300
F1788       F  0.16357072  0.02678406  0.90142056    -0.15700
C1789       C  0.89161923  0.43866727  0.83743962     0.14300
C1790       C  0.90810818  0.47283973  0.84525826     0.01300
C1791       C  0.88755885  0.47423332  0.85654967     0.16300
C1792       C  0.85044209  0.44295402  0.85959960     0.25700
C1793       C  0.83279095  0.40917656  0.85140875    -0.40600
C1794       C  0.85461785  0.40707268  0.84052781     0.32700
C1795       C  0.94558286  0.50780742  0.84122603     0.01400
F1796       F  0.90315800  0.50643778  0.86451957    -0.12900
F1797       F  0.83983108  0.37500904  0.83251481    -0.13500
C1798       C  0.94733270  0.54359701  0.83897759     0.16300
C1799       C  0.98205405  0.57643632  0.83485178     0.25700
C1800       C  0.01590089  0.57424835  0.83273895    -0.40600
C1801       C  0.01426833  0.53849245  0.83510297     0.32700
C1802       C  0.97946040  0.50562730  0.83932447     0.14400
F1803       F  0.91492592  0.54647711  0.84030942    -0.12900
F1804       F  0.04652895  0.53548013  0.83353190    -0.13500
F1805       F  0.98201660  0.61002898  0.83239238    -0.15700
F1806       F  0.97895866  0.47174212  0.84170477    -0.14300
F1807       F  0.91045867  0.43660152  0.82633779    -0.14300
F1808       F  0.83140467  0.44671175  0.87032388    -0.15700
C1809       C  0.15989866  0.60835512  0.78752113     0.14300
C1810       C  0.16399265  0.63068596  0.77595449     0.01300
C1811       C  0.14764181  0.65473501  0.77581805     0.16300
C1812       C  0.12799728  0.65700863  0.78713231     0.25700
C1813       C  0.12437067  0.63526792  0.79882059    -0.40600
C1814       C  0.14026856  0.61068279  0.79890324     0.32700
C1815       C  0.18506224  0.62908713  0.76391062     0.01400
F1816       F  0.15018414  0.67555128  0.76458807    -0.12900
F1817       F  0.13767733  0.58977555  0.81011673    -0.13500
C1818       C  0.16916922  0.59532266  0.75596184     0.16300
C1819       C  0.18753667  0.59481047  0.74399571     0.25700
C1820       C  0.22263764  0.62809358  0.73981050    -0.40600
C1821       C  0.23866708  0.66179413  0.74797239     0.32700
C1822       C  0.21997997  0.66221147  0.75987682     0.14400
F1823       F  0.13519799  0.56311057  0.75961516    -0.12900
F1824       F  0.27277141  0.69425204  0.74460503    -0.13500
F1825       F  0.17030616  0.56188269  0.73638608    -0.15700
F1826       F  0.23614397  0.69496655  0.76757164    -0.14300
F1827       F  0.17553551  0.58492526  0.78786109    -0.14300
F1828       F  0.11176542  0.67988899  0.78657920    -0.15700
C1829       C  0.18488525  0.85526401  0.85268335     0.14300
C1830       C  0.14535131  0.83170433  0.84936727     0.01300
C1831       C  0.11919763  0.84445092  0.85243692     0.16300
C1832       C  0.13234419  0.88000372  0.85910603     0.25700
C1833       C  0.17185958  0.90316454  0.86283053    -0.40600
C1834       C  0.19803930  0.89056155  0.85941465     0.32700
C1835       C  0.13126616  0.79249980  0.84371616     0.01400
F1836       F  0.08074136  0.82175008  0.84944064    -0.12900
F1837       F  0.23600734  0.91130526  0.86326291    -0.13500
C1838       C  0.13050476  0.76332783  0.85193857     0.16300
C1839       C  0.11888714  0.72650210  0.84663908     0.25700
C1840       C  0.10828043  0.71841706  0.83297521    -0.40600
C1841       C  0.10878785  0.74761261  0.82474637     0.32700
C1842       C  0.11995435  0.78438173  0.83012593     0.14400
F1843       F  0.14109526  0.77065791  0.86513232    -0.12900
F1844       F  0.09790290  0.74028527  0.81157793    -0.13500
F1845       F  0.11882501  0.69895084  0.85477788    -0.15700
F1846       F  0.12032153  0.81223103  0.82206170    -0.14300
F1847       F  0.21058514  0.84342459  0.84972561    -0.14300
F1848       F  0.10641033  0.89154180  0.86207896    -0.15700
C1849       C  0.50884269  0.16431069  0.25246997     0.14300
C1850       C  0.50366252  0.14241308  0.26422079     0.01300
C1851       C  0.48222926  0.10151361  0.26358581     0.16300
C1852       C  0.46544893  0.08268251  0.25143711     0.25700
C1853       C  0.47034602  0.10447603  0.23962210    -0.40600
C1854       C  0.49280575  0.14553135  0.24022783     0.32700
C1855       C  0.52166258  0.16207712  0.27707693     0.01400
F1856       F  0.47669696  0.07978909  0.27485546    -0.12900
F1857       F  0.49964245  0.16751317  0.22893367    -0.13500
C1858       C  0.51173572  0.18781627  0.28306674     0.16300
C1859       C  0.52913149  0.20644709  0.29522225     0.25700
C1860       C  0.55684184  0.19953656  0.30164364    -0.40600
C1861       C  0.56635314  0.17332943  0.29552859     0.32700
C1862       C  0.54899946  0.15499305  0.28339534     0.14400
F1863       F  0.48476528  0.19451969  0.27721876    -0.12900
F1864       F  0.59290272  0.16556614  0.30110226    -0.13500
F1865       F  0.51867171  0.23116447  0.30062648    -0.15700
F1866       F  0.55954961  0.13075862  0.27763074    -0.14300
F1867       F  0.52998389  0.20389416  0.25281749    -0.14300
F1868       F  0.44310173  0.04317319  0.25139918    -0.15700
C1869       C  0.42036428  0.86394541  0.20512320     0.14300
C1870       C  0.40744342  0.88203001  0.19601619     0.01300
C1871       C  0.38715148  0.86212074  0.18435363     0.16300
C1872       C  0.37795705  0.82374720  0.18217464     0.25700
C1873       C  0.38885736  0.80447528  0.19170981    -0.40600
C1874       C  0.41157328  0.82570485  0.20295176     0.32700
C1875       C  0.41271436  0.92052676  0.19924872     0.01400
F1876       F  0.37537938  0.87958648  0.17521906    -0.12900
F1877       F  0.42415378  0.80925785  0.21219730    -0.13500
C1878       C  0.45015933  0.95273243  0.20140157     0.16300
C1879       C  0.45478040  0.98853632  0.20534784     0.25700
C1880       C  0.42194842  0.99250586  0.20720360    -0.40600
C1881       C  0.38446003  0.96010311  0.20507905     0.32700
C1882       C  0.37991595  0.92450683  0.20102435     0.14400
F1883       F  0.48219962  0.94947681  0.19958195    -0.12900
F1884       F  0.35212869  0.96257407  0.20735442    -0.13500
F1885       F  0.49129331  0.01944163  0.20713642    -0.15700
F1886       F  0.34338815  0.89352598  0.19926019    -0.14300
F1887       F  0.43970767  0.88262817  0.21654893    -0.14300
F1888       F  0.35740556  0.80535418  0.17089282    -0.15700
C1889       C  0.10390029  0.10928088  0.08890735     0.14300
C1890       C  0.13232997  0.10262428  0.09461877     0.01300
C1891       C  0.13714232  0.07243515  0.08948004     0.16300
C1892       C  0.11460657  0.04983032  0.07862051     0.25700
C1893       C  0.08587285  0.05624096  0.07283355    -0.40600
C1894       C  0.08039432  0.08593532  0.07834643     0.32700
C1895       C  0.15626369  0.12632319  0.10617228     0.01400
F1896       F  0.16333474  0.06430244  0.09514948    -0.12900
F1897       F  0.05238624  0.09278417  0.07356998    -0.13500
C1898       C  0.13824667  0.12999645  0.11783756     0.16300
C1899       C  0.16066330  0.15074993  0.12897371     0.25700
C1900       C  0.20132018  0.16744669  0.12873836    -0.40600
C1901       C  0.21946166  0.16405875  0.11711403     0.32700
C1902       C  0.19716186  0.14417432  0.10582506     0.14400
F1903       F  0.09882807  0.11227758  0.11865716    -0.12900
F1904       F  0.25879584  0.18032297  0.11667667    -0.13500
F1905       F  0.14255498  0.15325937  0.14021290    -0.15700
F1906       F  0.21552391  0.14251111  0.09452511    -0.14300
F1907       F  0.09923770  0.13890697  0.09341189    -0.14300
F1908       F  0.12108578  0.02161968  0.07386999    -0.15700
C1909       C  0.20012189  0.29792366  0.16999464     0.14300
C1910       C  0.23390799  0.33264602  0.17367539     0.01300
C1911       C  0.27042915  0.33538390  0.17270107     0.16300
C1912       C  0.27323490  0.30395278  0.16791400     0.25700
C1913       C  0.23949735  0.26927944  0.16402314    -0.40600
C1914       C  0.20283657  0.26634222  0.16527483     0.32700
C1915       C  0.23171775  0.36688452  0.17797038     0.01400
F1916       F  0.30354859  0.36911456  0.17590703    -0.12900
F1917       F  0.16961026  0.23277275  0.16202869    -0.13500
C1918       C  0.24617155  0.38368437  0.19064171     0.16300
C1919       C  0.25032035  0.41969554  0.19389202     0.25700
C1920       C  0.24043365  0.43981843  0.18440141    -0.40600
C1921       C  0.22281176  0.42108416  0.17209433     0.32700
C1922       C  0.21868895  0.38500694  0.16892271     0.14400
F1923       F  0.25788215  0.36589957  0.19965899    -0.12900
F1924       F  0.21184346  0.43854442  0.16267275    -0.13500
F1925       F  0.26580840  0.43552294  0.20609721    -0.15700
F1926       F  0.20458911  0.36913793  0.15658999    -0.14300
F1927       F  0.16455679  0.29465201  0.17099935    -0.14300
F1928       F  0.30906261  0.30801978  0.16655188    -0.15700
C1929       C  0.28622198  0.12035517  0.17769872     0.14300
C1930       C  0.32651828  0.14288589  0.17988814     0.01300
C1931       C  0.34728454  0.18171679  0.17539149     0.16300
C1932       C  0.32778303  0.19790132  0.16873816     0.25700
C1933       C  0.28745304  0.17518551  0.16643024    -0.40600
C1934       C  0.26679371  0.13638043  0.17097839     0.32700
C1935       C  0.34671906  0.12587161  0.18704158     0.01400
F1936       F  0.38627167  0.20391243  0.17758700    -0.12900
F1937       F  0.22767552  0.11425749  0.16907871    -0.13500
C1938       C  0.37242708  0.11775424  0.18006818     0.16300
C1939       C  0.39171715  0.10171771  0.18691306     0.25700
C1940       C  0.38576898  0.09409020  0.20083952    -0.40600
C1941       C  0.35931913  0.10145972  0.20772435     0.32700
C1942       C  0.33988896  0.11724584  0.20084957     0.14400
F1943       F  0.37860185  0.12519047  0.16663347    -0.12900
F1944       F  0.35194994  0.09286114  0.22105912    -0.13500
F1945       F  0.41684115  0.09446417  0.18002702    -0.15700
F1946       F  0.31474135  0.12458891  0.20767454    -0.14300
F1947       F  0.26585199  0.08274556  0.18198561    -0.14300
F1948       F  0.34824679  0.23540053  0.16434494    -0.15700
C1949       C  0.39080258  0.99762459  0.33704134     0.14300
C1950       C  0.42648464  0.99936479  0.33926875     0.01300
C1951       C  0.42953823  0.96630253  0.33676823     0.16300
C1952       C  0.39724735  0.93179257  0.33209627     0.25700
C1953       C  0.36135793  0.92988202  0.32982660    -0.40600
C1954       C  0.35847628  0.96318604  0.33235732     0.32700
C1955       C  0.46134805  0.03664663  0.34309584     0.01400
F1956       F  0.46393258  0.96760627  0.33879970    -0.12900
F1957       F  0.32467314  0.96274558  0.32989007    -0.13500
C1958       C  0.46842762  0.04920304  0.35658601     0.16300
C1959       C  0.50090753  0.08548206  0.35993480     0.25700
C1960       C  0.52671965  0.10975376  0.34978195    -0.40600
C1961       C  0.51939954  0.09653443  0.33627966     0.32700
C1962       C  0.48713524  0.06039220  0.33301951     0.14400
F1963       F  0.44358595  0.02652310  0.36645973    -0.12900
F1964       F  0.54216557  0.11947434  0.32603997    -0.13500
F1965       F  0.50688095  0.09690467  0.37305984    -0.15700
F1966       F  0.48021571  0.04907337  0.31988899    -0.14300
F1967       F  0.38762045  0.02965284  0.33907948    -0.14300
F1968       F  0.40089009  0.90005952  0.33000009    -0.15700
C1969       C  0.30236609  0.76189227  0.28836027     0.14300
C1970       C  0.30253282  0.77520541  0.27515227     0.01300
C1971       C  0.30132023  0.80974434  0.27337850     0.16300
C1972       C  0.30023867  0.83061272  0.28457937     0.25700
C1973       C  0.29963937  0.81694955  0.29770895    -0.40600
C1974       C  0.30059730  0.78244558  0.29952934     0.32700
C1975       C  0.30396371  0.75313942  0.26326708     0.01400
F1976       F  0.30016614  0.82273924  0.26078936    -0.12900
F1977       F  0.30024199  0.76893640  0.31216442    -0.13500
C1978       C  0.27643768  0.71318155  0.26176532     0.16300
C1979       C  0.27790452  0.69241248  0.25060183     0.25700
C1980       C  0.30672842  0.71126487  0.24064469    -0.40600
C1981       C  0.33415285  0.75125152  0.24212365     0.32700
C1982       C  0.33288095  0.77191057  0.25333598     0.14400
F1983       F  0.24765247  0.69433367  0.27100960    -0.12900
F1984       F  0.36172846  0.77065705  0.23253997    -0.13500
F1985       F  0.25157108  0.65365983  0.24967727    -0.15700
F1986       F  0.36030103  0.81025143  0.25456510    -0.14300
F1987       F  0.30453762  0.72929328  0.29046000    -0.14300
F1988       F  0.29885003  0.86369239  0.28262171    -0.15700
C1989       C  0.97856855  0.82181140  0.42293555     0.14300
C1990       C  0.97531887  0.80312164  0.43537215     0.01300
C1991       C  0.96717214  0.76421852  0.43531894     0.16300
C1992       C  0.96370143  0.74504273  0.42309761     0.25700
C1993       C  0.96938511  0.76476152  0.41077716    -0.40600
C1994       C  0.97631811  0.80302874  0.41077686     0.32700
C1995       C  0.98117949  0.82456332  0.44828109     0.01400
F1996       F  0.96410271  0.74523134  0.44707577    -0.12900
F1997       F  0.98083626  0.82216801  0.39893882    -0.13500
C1998       C  0.95377335  0.80813930  0.45877446     0.16300
C1999       C  0.95869545  0.82896310  0.47066624     0.25700
C2000       C  0.99036989  0.86731819  0.47219077    -0.40600
C2001       C  0.01858447  0.88323798  0.46193116     0.32700
C2002       C  0.01415574  0.86196922  0.45013478     0.14400
F2003       F  0.92128614  0.77247988  0.45735422    -0.12900
F2004       F  0.04966135  0.91990492  0.46304585    -0.13500
F2005       F  0.93208516  0.81157554  0.48069272    -0.15700
F2006       F  0.04206533  0.87811476  0.44045529    -0.14300
F2007       F  0.98377289  0.85828639  0.42254094    -0.14300
F2008       F  0.95643290  0.70779089  0.42330311    -0.15700
C2009       C  0.85227868  0.59271290  0.37928868     0.14300
C2010       C  0.83863009  0.59050561  0.36604340     0.01300
C2011       C  0.85615575  0.62377378  0.35777518     0.16300
C2012       C  0.88751014  0.65871623  0.36263636     0.25700
C2013       C  0.90184307  0.66070165  0.37580850    -0.40600
C2014       C  0.88363939  0.62748169  0.38413678     0.32700
C2015       C  0.80746896  0.55265076  0.36081997     0.01400
F2016       F  0.84292080  0.62231384  0.34501635    -0.12900
F2017       F  0.89733283  0.62817903  0.39676987    -0.13500
C2018       C  0.76976000  0.53551734  0.36617550     0.16300
C2019       C  0.74212767  0.49679171  0.36315695     0.25700
C2020       C  0.75193667  0.47430056  0.35478389    -0.40600
C2021       C  0.78892176  0.49284940  0.34853742     0.32700
C2022       C  0.81647963  0.53159418  0.35163187     0.14400
F2023       F  0.76023680  0.55591191  0.37478290    -0.12900
F2024       F  0.79954174  0.47297182  0.34010901    -0.13500
F2025       F  0.70621851  0.48107295  0.36882597    -0.15700
F2026       F  0.85292344  0.54771025  0.34638496    -0.14300
F2027       F  0.83609589  0.56063584  0.38735350    -0.14300
F2028       F  0.90379811  0.69067204  0.35452033    -0.15700
C2029       C  0.16884161  0.83736029  0.34314599     0.14300
C2030       C  0.14924053  0.79940869  0.34853889     0.01300
C2031       C  0.16556922  0.77547467  0.34691731     0.16300
C2032       C  0.20100758  0.78941389  0.34009346     0.25700
C2033       C  0.22072434  0.82752633  0.33481607    -0.40600
C2034       C  0.20424125  0.85129443  0.33636701     0.32700
C2035       C  0.11223283  0.78532098  0.35605537     0.01400
F2036       F  0.14701105  0.73848077  0.35183635    -0.12900
F2037       F  0.22222429  0.88793192  0.33114404    -0.13500
C2038       C  0.08033435  0.78546376  0.34993969     0.16300
C2039       C  0.04596108  0.77355631  0.35720258     0.25700
C2040       C  0.04267600  0.76069421  0.37061874    -0.40600
C2041       C  0.07456736  0.76072121  0.37676358     0.32700
C2042       C  0.10906211  0.77295246  0.36955116     0.14400
F2043       F  0.08231699  0.79665576  0.33686124    -0.12900
F2044       F  0.07201396  0.74819262  0.38969288    -0.13500
F2045       F  0.01605313  0.77513917  0.35121888    -0.15700
F2046       F  0.13960670  0.77326870  0.37581795    -0.14300
F2047       F  0.15402422  0.86126489  0.34467418    -0.14300
F2048       F  0.21652571  0.76601804  0.33890080    -0.15700
C2049       C  0.21945671  0.28707629  0.02939552     0.14300
C2050       C  0.19752651  0.25396752  0.03745965     0.01300
C2051       C  0.20849040  0.25393702  0.05095805     0.16300
C2052       C  0.24143591  0.28648339  0.05628393     0.25700
C2053       C  0.26373876  0.31945460  0.04816208    -0.40600
C2054       C  0.25223642  0.31974145  0.03474134     0.32700
C2055       C  0.16430543  0.21851715  0.03171923     0.01400
F2056       F  0.18801708  0.22179436  0.05880851    -0.12900
F2057       F  0.27271439  0.35179935  0.02685744    -0.13500
C2058       C  0.17092743  0.19599032  0.02242785     0.16300
C2059       C  0.14047982  0.15935434  0.01855035     0.25700
C2060       C  0.10279156  0.14442519  0.02404824    -0.40600
C2061       C  0.09578956  0.16863052  0.03256486     0.32700
C2062       C  0.12640807  0.20531021  0.03639509     0.14400
F2063       F  0.20749267  0.20835226  0.01781135    -0.12900
F2064       F  0.05963890  0.15641570  0.03755416    -0.13500
F2065       F  0.14879921  0.13757919  0.01016224    -0.15700
F2066       F  0.11941465  0.22749277  0.04505031    -0.14300
F2067       F  0.20910538  0.28765936  0.01636127    -0.14300
F2068       F  0.25243991  0.28525772  0.06918351    -0.15700
C2069       C  0.31446844  0.43289408  0.10415475     0.14300
C2070       C  0.32845549  0.47294016  0.10258798     0.01300
C2071       C  0.34398085  0.49108487  0.09014571     0.16300
C2072       C  0.34539161  0.46931330  0.07935371     0.25700
C2073       C  0.33144754  0.42918137  0.08091033    -0.40600
C2074       C  0.31602140  0.41113915  0.09339649     0.32700
C2075       C  0.32680570  0.49554359  0.11403446     0.01400
F2076       F  0.35699942  0.52965228  0.08839179    -0.12900
F2077       F  0.30330480  0.37268324  0.09525674    -0.13500
C2078       C  0.36124397  0.52522931  0.11984830     0.16300
C2079       C  0.35971831  0.54484380  0.13128811     0.25700
C2080       C  0.32344808  0.53518745  0.13707431    -0.40600
C2081       C  0.28894284  0.50532188  0.13106169     0.32700
C2082       C  0.29073016  0.48598729  0.11961536     0.14400
F2083       F  0.39646525  0.53449045  0.11464808    -0.12900
F2084       F  0.25326756  0.49418387  0.13628153    -0.13500
F2085       F  0.39391072  0.57287234  0.13671703    -0.15700
F2086       F  0.25708605  0.45774797  0.11394239    -0.14300
F2087       F  0.29990050  0.41508285  0.11620495    -0.14300
F2088       F  0.35949494  0.48717642  0.06727950    -0.15700
C2089       C  0.65226984  0.47830164  0.94504685     0.14300
C2090       C  0.64903231  0.44146320  0.94492333     0.01300
C2091       C  0.64872676  0.42349728  0.95719189     0.16300
C2092       C  0.65159015  0.44216466  0.96946055     0.25700
C2093       C  0.65530316  0.47919727  0.96956457    -0.40600
C2094       C  0.65555110  0.49714198  0.95730459     0.32700
C2095       C  0.64780247  0.42250085  0.93198869     0.01400
F2096       F  0.64631181  0.38819793  0.95724104    -0.12900
F2097       F  0.65818573  0.53255458  0.95726102    -0.13500
C2098       C  0.68213967  0.43533908  0.92460193     0.16300
C2099       C  0.68184434  0.41651179  0.91266069     0.25700
C2100       C  0.64686547  0.38430195  0.90778174    -0.40600
C2101       C  0.61219861  0.37212272  0.91518421     0.32700
C2102       C  0.61279859  0.39104927  0.92718183     0.14400
F2103       F  0.71624603  0.46583909  0.92912585    -0.12900
F2104       F  0.57772747  0.34143804  0.91102645    -0.13500
F2105       F  0.71604081  0.43003390  0.90595043    -0.15700
F2106       F  0.57916987  0.37864781  0.93414895    -0.14300
F2107       F  0.65193846  0.49578818  0.93329676    -0.14300
F2108       F  0.65128933  0.42444249  0.98123484    -0.15700
C2109       C  0.77361211  0.63262530  0.01886828     0.14300
C2110       C  0.79357656  0.66161775  0.00908814     0.01300
C2111       C  0.78123135  0.65425494  0.99558811     0.16300
C2112       C  0.74838304  0.61888913  0.99196978     0.25700
C2113       C  0.72759077  0.58994120  0.00178760    -0.40600
C2114       C  0.74096379  0.59699815  0.01525992     0.32700
C2115       C  0.82448132  0.70102985  0.01312957     0.01400
F2116       F  0.79983479  0.68219019  0.98601994    -0.12900
F2117       F  0.72249280  0.56943527  0.02494436    -0.13500
C2118       C  0.86270065  0.71685540  0.00831380     0.16300
C2119       C  0.89064050  0.75569111  0.01107500     0.25700
C2120       C  0.88066476  0.77932637  0.01870012    -0.40600
C2121       C  0.84252040  0.76282470  0.02382157     0.32700
C2122       C  0.81474620  0.72410638  0.02101282     0.14400
F2123       F  0.87269345  0.69491463  0.00070002    -0.12900
F2124       F  0.83118709  0.78475530  0.03079764    -0.13500
F2125       F  0.92718047  0.77029757  0.00604922    -0.15700
F2126       F  0.77755300  0.70974791  0.02531815    -0.14300
F2127       F  0.78554719  0.63913036  0.03195017    -0.14300
F2128       F  0.73577913  0.61386111  0.97897682    -0.15700
C2129       C  0.47549246  0.43317937  0.04419805     0.14300
C2130       C  0.47758502  0.44068574  0.03027745     0.01300
C2131       C  0.44388214  0.43337119  0.02322997     0.16300
C2132       C  0.40856629  0.41919697  0.03006841     0.25700
C2133       C  0.40652965  0.41218314  0.04405806    -0.40600
C2134       C  0.44024892  0.41914723  0.05106042     0.32700
C2135       C  0.51521442  0.45701690  0.02320104     0.01400
F2136       F  0.44523129  0.43992066  0.00972438    -0.12900
F2137       F  0.43896376  0.41204614  0.06452540    -0.13500
C2138       C  0.53383883  0.43516863  0.02208311     0.16300
C2139       C  0.56964612  0.45080421  0.01546390     0.25700
C2140       C  0.58742089  0.48860047  0.00997101    -0.40600
C2141       C  0.56897621  0.51063234  0.01123420     0.32700
C2142       C  0.53295118  0.49481724  0.01774094     0.14400
F2143       F  0.51691700  0.39842327  0.02717787    -0.12900
F2144       F  0.58526264  0.54693043  0.00579531    -0.13500
F2145       F  0.58707087  0.42910463  0.01440479    -0.15700
F2146       F  0.51536289  0.51637596  0.01877019    -0.14300
F2147       F  0.50783102  0.44020266  0.05117456    -0.14300
F2148       F  0.37661827  0.41341879  0.02310629    -0.15700
C2149       C  0.18293020  0.53039164  0.61414687     0.14300
C2150       C  0.18175936  0.49598719  0.61015036     0.01300
C2151       C  0.19939848  0.48040270  0.61829815     0.16300
C2152       C  0.21781131  0.49874958  0.63035153     0.25700
C2153       C  0.21945133  0.53358498  0.63443566    -0.40600
C2154       C  0.20179953  0.54921993  0.62611036     0.32700
C2155       C  0.16181163  0.47602257  0.59753616     0.01400
F2156       F  0.19816985  0.44688064  0.61467213    -0.12900
F2157       F  0.20340186  0.58317982  0.62932847    -0.13500
C2158       C  0.18290122  0.47198079  0.58692474     0.16300
C2159       C  0.16387831  0.45266331  0.57504824     0.25700
C2160       C  0.12352297  0.43712106  0.57365238    -0.40600
C2161       C  0.10246289  0.44114243  0.58428856     0.32700
C2162       C  0.12147488  0.46045190  0.59614016     0.14400
F2163       F  0.22204691  0.48749938  0.58798135    -0.12900
F2164       F  0.06334123  0.42589183  0.58324290    -0.13500
F2165       F  0.18499585  0.45021752  0.56474677    -0.15700
F2166       F  0.10043146  0.46342066  0.60635828    -0.14300
F2167       F  0.16641881  0.54618937  0.60629419    -0.14300
F2168       F  0.23351298  0.48189456  0.63806968    -0.15700
C2169       C  0.08999311  0.29107284  0.52262973     0.14300
C2170       C  0.07790015  0.26002769  0.53183902     0.01300
C2171       C  0.06694002  0.26408321  0.54495980     0.16300
C2172       C  0.06874161  0.29864423  0.54889620     0.25700
C2173       C  0.08130557  0.32989442  0.53978593    -0.40600
C2174       C  0.09158582  0.32571560  0.52656685     0.32700
C2175       C  0.07541740  0.22282354  0.52787421     0.01400
F2176       F  0.05347466  0.23407425  0.55390445    -0.12900
F2177       F  0.10403794  0.35549957  0.51757680    -0.13500
C2178       C  0.09352796  0.20716537  0.53581676     0.16300
C2179       C  0.08580482  0.16917119  0.53361675     0.25700
C2180       C  0.06004789  0.14603524  0.52325245    -0.40600
C2181       C  0.04496916  0.16336006  0.51448845     0.32700
C2182       C  0.05221934  0.20111729  0.51689207     0.14400
F2183       F  0.11786587  0.22835885  0.54603714    -0.12900
F2184       F  0.02148785  0.14328514  0.50394073    -0.13500
F2185       F  0.10265705  0.15482489  0.54197881    -0.15700
F2186       F  0.03444578  0.21542812  0.50896428    -0.14300
F2187       F  0.10093267  0.28812671  0.50991509    -0.14300
F2188       F  0.05714888  0.30120256  0.56155034    -0.15700
C2189       C  0.88153023  0.72308067  0.50605823     0.14300
C2190       C  0.89957805  0.70611119  0.51318923     0.01300
C2191       C  0.92195755  0.72471704  0.52466835     0.16300
C2192       C  0.92871626  0.76148859  0.52841904     0.25700
C2193       C  0.91307761  0.78019482  0.52066395    -0.40600
C2194       C  0.88765681  0.75948552  0.50985233     0.32700
C2195       C  0.89685658  0.67009849  0.50814371     0.01400
F2196       F  0.93825080  0.70770084  0.53198893    -0.12900
F2197       F  0.86992662  0.77498024  0.50249124    -0.13500
C2198       C  0.92998114  0.67121004  0.50272025     0.16300
C2199       C  0.92741457  0.63725663  0.49766761     0.25700
C2200       C  0.89166155  0.60196103  0.49793025    -0.40600
C2201       C  0.85847891  0.60093487  0.50323585     0.32700
C2202       C  0.86106532  0.63490047  0.50831151     0.14400
F2203       F  0.96455711  0.70532620  0.50211924    -0.12900
F2204       F  0.82391026  0.56684514  0.50380131    -0.13500
F2205       F  0.95961768  0.63881142  0.49236388    -0.15700
F2206       F  0.82888538  0.63345382  0.51357281    -0.14300
F2207       F  0.85966628  0.70532060  0.49493552    -0.14300
F2208       F  0.95203976  0.77929165  0.53924049    -0.15700
C2209       C  0.76825361  0.38890607  0.42854339     0.14300
C2210       C  0.77572937  0.42721024  0.43018470     0.01300
C2211       C  0.76294452  0.44343876  0.42027292     0.16300
C2212       C  0.74385683  0.42207986  0.40871328     0.25700
C2213       C  0.73697962  0.38386577  0.40686819    -0.40600
C2214       C  0.74908836  0.36739733  0.41699839     0.32700
C2215       C  0.79883066  0.45076314  0.44188024     0.01400
F2216       F  0.77011310  0.48050094  0.42156543    -0.12900
F2217       F  0.74172566  0.33023740  0.41589009    -0.13500
C2218       C  0.83702450  0.45831979  0.44369106     0.16300
C2219       C  0.85871746  0.47883563  0.45498335     0.25700
C2220       C  0.84254469  0.49208777  0.46478542    -0.40600
C2221       C  0.80458056  0.48552108  0.46274810     0.32700
C2222       C  0.78301136  0.46522867  0.45133179     0.14400
F2223       F  0.85350423  0.44610716  0.43438066    -0.12900
F2224       F  0.78776790  0.49744913  0.47203125    -0.13500
F2225       F  0.89586640  0.48626978  0.45619983    -0.15700
F2226       F  0.74628422  0.45871038  0.44971406    -0.14300
F2227       F  0.77942130  0.37228292  0.43821415    -0.14300
F2228       F  0.73321488  0.43939206  0.39912558    -0.15700
C2229       C  0.94185746  0.47418906  0.52282154     0.14300
C2230       C  0.97399087  0.47530163  0.51651118     0.01300
C2231       C  0.98433143  0.49023039  0.50334967     0.16300
C2232       C  0.96243219  0.50331497  0.49647465     0.25700
C2233       C  0.93027653  0.50211780  0.50275737    -0.40600
C2234       C  0.92024901  0.48778445  0.51599882     0.32700
C2235       C  0.99623839  0.45989416  0.52341445     0.01400
F2236       F  0.01528663  0.49148733  0.49710166    -0.12900
F2237       F  0.88922116  0.48649430  0.52220306    -0.13500
C2238       C  0.97866509  0.41982560  0.52613204     0.16300
C2239       C  0.00031642  0.40474708  0.53195529     0.25700
C2240       C  0.03988661  0.42963322  0.53517199    -0.40600
C2241       C  0.05731145  0.46986682  0.53249841     0.32700
C2242       C  0.03559933  0.48485547  0.52670208     0.14400
F2243       F  0.94062684  0.39527657  0.52296869    -0.12900
F2244       F  0.09553709  0.49462840  0.53536051    -0.13500
F2245       F  0.98234287  0.36602428  0.53477074    -0.15700
F2246       F  0.05288385  0.52380312  0.52436875    -0.14300
F2247       F  0.93168863  0.46023756  0.53559772    -0.14300
F2248       F  0.97286002  0.51764833  0.48375223    -0.15700
C2249       C  0.73094728  0.59486919  0.88596574     0.14300
C2250       C  0.73300680  0.58671975  0.87230081     0.01300
C2251       C  0.73752734  0.61402883  0.86241780     0.16300
C2252       C  0.73957097  0.64888514  0.86608951     0.25700
C2253       C  0.73667774  0.65692676  0.87975235    -0.40600
C2254       C  0.73257331  0.62961504  0.88967157     0.32700
C2255       C  0.72751258  0.54857759  0.86819215     0.01400
F2256       F  0.73972400  0.60672189  0.84915646    -0.12900
F2257       F  0.72838116  0.63571180  0.90289085    -0.13500
C2258       C  0.69500309  0.52337476  0.86035005     0.16300
C2259       C  0.68867513  0.48684453  0.85661117     0.25700
C2260       C  0.71482247  0.47464106  0.86067718    -0.40600
C2261       C  0.74792277  0.50035528  0.86833991     0.32700
C2262       C  0.75412778  0.53702691  0.87208899     0.14400
F2263       F  0.66845752  0.53362938  0.85673118    -0.12900
F2264       F  0.77421585  0.49003127  0.87222892    -0.13500
F2265       F  0.65570269  0.46268478  0.84961795    -0.15700
F2266       F  0.78611428  0.56130953  0.87949728    -0.14300
F2267       F  0.72564104  0.56840203  0.89565741    -0.14300
F2268       F  0.74466267  0.67489810  0.85625387    -0.15700
C2269       C  0.79088193  0.80763705  0.93069907     0.14300
C2270       C  0.83050202  0.81885152  0.93166145     0.01300
C2271       C  0.84758258  0.80909504  0.92109223     0.16300
C2272       C  0.82521660  0.78748475  0.90999642     0.25700
C2273       C  0.78536640  0.77540057  0.90921198    -0.40600
C2274       C  0.76853373  0.78611418  0.91958918     0.32700
C2275       C  0.85355316  0.83931719  0.94390549     0.01400
F2276       F  0.88609800  0.82083241  0.92146852    -0.12900
F2277       F  0.73002293  0.77445781  0.91922177    -0.13500
C2278       C  0.87105949  0.82276003  0.95170852     0.16300
C2279       C  0.89189668  0.84122322  0.96347056     0.25700
C2280       C  0.89576528  0.87686900  0.96774842    -0.40600
C2281       C  0.87837941  0.89354632  0.95977310     0.32700
C2282       C  0.85748724  0.87490994  0.94803528     0.14400
F2283       F  0.86694279  0.78790760  0.94814524    -0.12900
F2284       F  0.88189007  0.92824484  0.96318199    -0.13500
F2285       F  0.90728439  0.82343764  0.97084367    -0.15700
F2286       F  0.84143843  0.89194751  0.94058785    -0.14300
F2287       F  0.77343750  0.81636460  0.94075533    -0.14300
F2288       F  0.84262799  0.77880702  0.89990962    -0.15700
C2289       C  0.43753740  0.78206854  0.78585034     0.14300
C2290       C  0.45717109  0.77225091  0.77628215     0.01300
C2291       C  0.49613483  0.78296220  0.77852052     0.16300
C2292       C  0.51522530  0.80294036  0.79022473     0.25700
C2293       C  0.49550967  0.81222218  0.79999182    -0.40600
C2294       C  0.45655059  0.80185724  0.79765803     0.32700
C2295       C  0.43725387  0.75102327  0.76389306     0.01400
F2296       F  0.51586223  0.77447615  0.76925525    -0.12900
F2297       F  0.43651581  0.80965046  0.80700037    -0.13500
C2298       C  0.42255471  0.76736989  0.75476046     0.16300
C2299       C  0.40445608  0.74778585  0.74288660     0.25700
C2300       C  0.40094493  0.71143416  0.73988647    -0.40600
C2301       C  0.41552030  0.69500886  0.74913662     0.32700
C2302       C  0.43362219  0.71474691  0.76102476     0.14400
F2303       F  0.42653570  0.80280967  0.75720034    -0.12900
F2304       F  0.41129206  0.65937622  0.74690843    -0.13500
F2305       F  0.39093391  0.76486400  0.73426049    -0.15700
F2306       F  0.44711175  0.69816364  0.76986688    -0.14300
F2307       F  0.39964907  0.77152966  0.78390709    -0.14300
F2308       F  0.55325433  0.81369366  0.79192117    -0.15700
C2309       C  0.51324298  0.96112996  0.84003846     0.14300
C2310       C  0.55028800  0.99502519  0.84042385     0.01300
C2311       C  0.58317750  0.99267770  0.83686981     0.16300
C2312       C  0.57927126  0.95701788  0.83309959     0.25700
C2313       C  0.54234801  0.92299273  0.83278548    -0.40600
C2314       C  0.50928813  0.92529357  0.83625496     0.32700
C2315       C  0.55520299  0.03322571  0.84432907     0.01400
F2316       F  0.61909172  0.02523398  0.83679570    -0.12900
F2317       F  0.47336794  0.89272210  0.83624211    -0.13500
C2318       C  0.57399115  0.05108591  0.85646240     0.16300
C2319       C  0.58340192  0.08936550  0.85940803     0.25700
C2320       C  0.57399287  0.11067830  0.85024882    -0.40600
C2321       C  0.55303653  0.09147249  0.83839253     0.32700
C2322       C  0.54411835  0.05337042  0.83545184     0.14400
F2323       F  0.58396806  0.03157309  0.86535899    -0.12900
F2324       F  0.54208108  0.10974996  0.82932541    -0.13500
F2325       F  0.60250678  0.10565177  0.87111699    -0.15700
F2326       F  0.52615470  0.03673884  0.82360309    -0.14300
F2327       F  0.48107902  0.96270815  0.84349294    -0.14300
F2328       F  0.61151250  0.95585542  0.82941249    -0.15700
C2329       C  0.69024989  0.80315687  0.85816574     0.14300
C2330       C  0.64981364  0.77906187  0.85664786     0.01300
C2331       C  0.63101915  0.74127993  0.86212579     0.16300
C2332       C  0.65232103  0.72803727  0.86935395     0.25700
C2333       C  0.69266785  0.75270457  0.87134495    -0.40600
C2334       C  0.71151025  0.79018293  0.86553343     0.32700
C2335       C  0.62691874  0.79413261  0.85000335     0.01400
F2336       F  0.59196537  0.71743113  0.86055586    -0.12900
F2337       F  0.75059235  0.81414911  0.86693917    -0.13500
C2338       C  0.62973730  0.80083790  0.83603047     0.16300
C2339       C  0.60786843  0.81513798  0.82983702     0.25700
C2340       C  0.58313014  0.82325096  0.83758322    -0.40600
C2341       C  0.58078454  0.81690861  0.85160015     0.32700
C2342       C  0.60245730  0.80234974  0.85774996     0.14400
F2343       F  0.65338655  0.79318385  0.82839801    -0.12900
F2344       F  0.55675569  0.82387212  0.85928331    -0.13500
F2345       F  0.61125709  0.82157147  0.81629883    -0.15700
F2346       F  0.59987310  0.79651896  0.87131283    -0.14300
F2347       F  0.70892335  0.83963162  0.85280573    -0.14300
F2348       F  0.63333868  0.69164274  0.87477652    -0.15700
C2349       C  0.09356566  0.29035434  0.68552629     0.14300
C2350       C  0.11007665  0.32303058  0.67697897     0.01300
C2351       C  0.09462753  0.32036382  0.66401941     0.16300
C2352       C  0.06285692  0.28535991  0.65962192     0.25700
C2353       C  0.04592232  0.25271616  0.66819009    -0.40600
C2354       C  0.06150547  0.25526040  0.68114934     0.32700
C2355       C  0.14213788  0.36080478  0.68165014     0.01400
F2356       F  0.10948899  0.35216747  0.65583896    -0.12900
F2357       F  0.04553560  0.22387540  0.68952397    -0.13500
C2358       C  0.17989414  0.37521360  0.67662419     0.16300
C2359       C  0.20903834  0.41360194  0.67930732     0.25700
C2360       C  0.20050355  0.43833266  0.68687642    -0.40600
C2361       C  0.16293725  0.42282018  0.69252311     0.32700
C2362       C  0.13404820  0.38437908  0.68989106     0.14400
F2363       F  0.18803151  0.35248415  0.66867206    -0.12900
F2364       F  0.15316983  0.44541951  0.69984718    -0.13500
F2365       F  0.24524521  0.42678402  0.67419440    -0.15700
F2366       F  0.09741979  0.37092561  0.69465426    -0.14300
F2367       F  0.10824140  0.29269517  0.69810538    -0.14300
F2368       F  0.04747452  0.28373535  0.64721611    -0.15700
C2369       C  0.00619701  0.11257789  0.58762621     0.14300
C2370       C  0.98052341  0.09113779  0.59814162     0.01300
C2371       C  0.95461482  0.05100774  0.59650605     0.16300
C2372       C  0.95436562  0.03241871  0.58451869     0.25700
C2373       C  0.98056548  0.05361482  0.57406053    -0.40600
C2374       C  0.00637206  0.09392668  0.57568304     0.32700
C2375       C  0.98005251  0.11065032  0.61073952     0.01400
F2376       F  0.92940844  0.02988685  0.60652940    -0.12900
F2377       F  0.03130530  0.11533206  0.56562842    -0.13500
C2378       C  0.96701128  0.13749826  0.61055372     0.16300
C2379       C  0.96524710  0.15507262  0.62251704     0.25700
C2380       C  0.97689285  0.14635017  0.63477714    -0.40600
C2381       C  0.99020535  0.11971143  0.63499691     0.32700
C2382       C  0.99157806  0.10176495  0.62303481     0.14400
F2383       F  0.95542439  0.14618004  0.59880214    -0.12900
F2384       F  0.00143496  0.11086153  0.64679839    -0.13500
F2385       F  0.95259663  0.18099738  0.62215504    -0.15700
F2386       F  0.00445330  0.07601138  0.62339470    -0.14300
F2387       F  0.03147133  0.15144228  0.58903228    -0.14300
F2388       F  0.92936454  0.99343044  0.58331577    -0.15700
C2389       C  0.45042827  0.86477172  0.70291998     0.14300
C2390       C  0.48434203  0.88197843  0.69501860     0.01300
C2391       C  0.48685800  0.86126441  0.68398619     0.16300
C2392       C  0.45698636  0.82302965  0.68137851     0.25700
C2393       C  0.42382033  0.80453994  0.68983530    -0.40600
C2394       C  0.42043646  0.82660620  0.70036056     0.32700
C2395       C  0.51831207  0.91991484  0.69909651     0.01400
F2396       F  0.51884371  0.87777885  0.67592019    -0.12900
F2397       F  0.38882889  0.81099533  0.70859298    -0.13500
C2398       C  0.55343025  0.92194112  0.70280234     0.16300
C2399       C  0.58471879  0.95678314  0.70768293     0.25700
C2400       C  0.58140484  0.99018596  0.70898169    -0.40600
C2401       C  0.54657509  0.98840926  0.70509514     0.32700
C2402       C  0.51525336  0.95353606  0.70015517     0.14400
F2403       F  0.55698314  0.88977613  0.70208205    -0.12900
F2404       F  0.54326363  0.02069022  0.70583711    -0.13500
F2405       F  0.61801600  0.95770498  0.71144938    -0.15700
F2406       F  0.48205567  0.95262594  0.69628223    -0.14300
F2407       F  0.44728274  0.88417023  0.71365848    -0.14300
F2408       F  0.46149465  0.80387376  0.67084166    -0.15700
C2409       C  0.67500491  0.12568250  0.76539085     0.14300
C2410       C  0.64746787  0.13728611  0.76757431     0.01300
C2411       C  0.61770776  0.12723160  0.75795432     0.16300
C2412       C  0.61600775  0.10659597  0.74627028     0.25700
C2413       C  0.64455888  0.09645370  0.74384325    -0.40600
C2414       C  0.67372095  0.10570697  0.75361964     0.32700
C2415       C  0.64971917  0.15965711  0.77989559     0.01400
F2416       F  0.59104366  0.13857872  0.75964348    -0.12900
F2417       F  0.70090662  0.09510533  0.75180729    -0.13500
C2418       C  0.68403083  0.19475417  0.78312551     0.16300
C2419       C  0.68585336  0.21596786  0.79468026     0.25700
C2420       C  0.65311031  0.20278096  0.80316941    -0.40600
C2421       C  0.61914366  0.16700620  0.80001733     0.32700
C2422       C  0.61753035  0.14584111  0.78855027     0.14400
F2423       F  0.71554749  0.20910023  0.77487371    -0.12900
F2424       F  0.58731159  0.15192056  0.80811082    -0.13500
F2425       F  0.71942917  0.24982735  0.79732588    -0.15700
F2426       F  0.58448564  0.11136424  0.78600770    -0.14300
F2427       F  0.70301383  0.13339525  0.77474203    -0.14300
F2428       F  0.58740960  0.09796863  0.73706793    -0.15700
C2429       C  0.85964558  0.14046001  0.69061805     0.14300
C2430       C  0.83012453  0.14249668  0.68353554     0.01300
C2431       C  0.83724547  0.15758082  0.67033188     0.16300
C2432       C  0.87317800  0.16929023  0.66415464     0.25700
C2433       C  0.90233790  0.16633409  0.67118523    -0.40600
C2434       C  0.89554718  0.15249715  0.68452397     0.32700
C2435       C  0.79136709  0.12650172  0.68980541     0.01400
F2436       F  0.80905311  0.15976880  0.66331488    -0.12900
F2437       F  0.92330252  0.14941437  0.69148609    -0.13500
C2438       C  0.77734989  0.15104625  0.69374937     0.16300
C2439       C  0.74189674  0.13569996  0.70068096     0.25700
C2440       C  0.71997688  0.09552508  0.70368932    -0.40600
C2441       C  0.73426398  0.07117491  0.69967679     0.32700
C2442       C  0.76946502  0.08650214  0.69273613     0.14400
F2443       F  0.79856637  0.18996087  0.69124765    -0.12900
F2444       F  0.71489515  0.03269802  0.70295335    -0.13500
F2445       F  0.72900482  0.16004572  0.70442315    -0.15700
F2446       F  0.78262713  0.06233896  0.68904194    -0.14300
F2447       F  0.85335139  0.12617814  0.70340922    -0.14300
F2448       F  0.87960725  0.18354996  0.65135543    -0.15700
loop_ 
_geom_bond_atom_site_label_1 
_geom_bond_atom_site_label_2 
_geom_bond_distance 
_geom_bond_site_symmetry_2 
_ccdc_geom_bond_type 
C1            C2   1.408       .  A
C1            C6   1.405       .  A
C1         C2413   1.485       .  S
C2            C3   1.406       .  A
C2            H7   1.084       .  S
C3            C4   1.400       .  A
C3         C2400   1.479   1_545  S
C4            C5   1.403       .  A
C4            H8   1.084       .  S
C5            C6   1.402       .  A
C5         C2440   1.483       .  S
C6            H9   1.084       .  S
C10          C11   1.402       .  A
C10          C15   1.400   1_655  A
C10        C2380   1.471       .  S
C11          C12   1.403       .  A
C11          H16   1.084       .  S
C12          C13   1.401       .  A
C12        C2433   1.474       .  S
C13          C14   1.400   1_655  A
C13          H17   1.084       .  S
C14          C15   1.401       .  A
C14        C2353   1.470       .  S
C15          H18   1.084       .  S
C19          C20   1.405       .  A
C19          C24   1.406       .  A
C19        C2313   1.482       .  S
C20          C21   1.405       .  A
C20          H25   1.084       .  S
C21          C22   1.400       .  A
C21        C2293   1.479       .  S
C22          C23   1.398       .  A
C22          H26   1.084       .  S
C23          C24   1.404       .  A
C23        C2340   1.480       .  S
C24          H27   1.084       .  S
C28          C29   1.403       .  A
C28          C33   1.406       .  A
C28        C2273   1.485       .  S
C29          C30   1.404       .  A
C29          H34   1.084       .  S
C30          C31   1.401       .  A
C30        C2333   1.480       .  S
C31          C32   1.405       .  A
C31          H35   1.084       .  S
C32          C33   1.406       .  A
C32        C2253   1.486       .  S
C33          H36   1.083       .  S
C37          C38   1.402       .  A
C37          C42   1.398       .  A
C37        C2200   1.468       .  S
C38          C39   1.406       .  A
C38          H43   1.083       .  S
C39          C40   1.407       .  A
C39        C2220   1.486       .  S
C40          C41   1.401       .  A
C40          H44   1.084       .  S
C41          C42   1.396       .  A
C41        C2233   1.470       .  S
C42          H45   1.085       .  S
C46          C47   1.397       .  A
C46          C51   1.402       .  A
C46        C2160   1.476       .  S
C47          C48   1.400       .  A
C47          H52   1.084       .  S
C48          C49   1.407       .  A
C48        C2240   1.480       .  S
C49          C50   1.406       .  A
C49          H53   1.084       .  S
C50          C51   1.406       .  A
C50        C2173   1.483       .  S
C51          H54   1.084       .  S
C55          C56   1.401       .  A
C55          C60   1.397       .  A
C55        C2093   1.472       .  S
C56          C57   1.407       .  A
C56          H61   1.083       .  S
C57          C58   1.408   1_556  A
C57        C2113   1.487   1_556  S
C58          C59   1.404       .  A
C58          H62   1.084       .  S
C59          C60   1.400   1_554  A
C59        C2140   1.475       .  S
C60          H63   1.084       .  S
C64          C65   1.401       .  A
C64          C69   1.403       .  A
C64        C2073   1.474       .  S
C65          C66   1.401       .  A
C65          H70   1.084       .  S
C66          C67   1.401       .  A
C66        C2133   1.476       .  S
C67          C68   1.401       .  A
C67          H71   1.084       .  S
C68          C69   1.401       .  A
C68        C2053   1.474       .  S
C69          H72   1.084       .  S
C73          C74   1.402       .  A
C73          C78   1.403   1_655  A
C73        C1993   1.476       .  S
C74          C75   1.405       .  A
C74          H79   1.084       .  S
C75          C76   1.405       .  A
C75        C2013   1.481       .  S
C76          C77   1.403   1_655  A
C76          H80   1.084       .  S
C77          C78   1.402       .  A
C77        C2040   1.479       .  S
C78          H81   1.084       .  S
C82          C83   1.402       .  A
C82          C87   1.404       .  A
C82        C1973   1.476       .  S
C83          C84   1.403       .  A
C83          H88   1.084       .  S
C84          C85   1.404       .  A
C84        C2033   1.482       .  S
C85          C86   1.405       .  A
C85          H89   1.084       .  S
C86          C87   1.407       .  A
C86        C1953   1.486       .  S
C87          H90   1.084       .  S
C91          C92   1.398       .  A
C91          C96   1.398       .  A
C91        C1900   1.470       .  S
C92          C93   1.402       .  A
C92          H97   1.084       .  S
C93          C94   1.404       .  A
C93        C1913   1.477       .  S
C94          C95   1.401       .  A
C94          H98   1.084       .  S
C95          C96   1.400       .  A
C95        C1933   1.470       .  S
C96          H99   1.084       .  S
C100        C101   1.406       .  A
C100        C105   1.402       .  A
C100       C1853   1.483       .  S
C101        C102   1.404       .  A
C101        H106   1.083       .  S
C102        C103   1.400       .  A
C102       C1880   1.476   1_545  S
C103        C104   1.396       .  A
C103        H107   1.084       .  S
C104        C105   1.399       .  A
C104       C1940   1.471       .  S
C105        H108   1.083       .  S
C109        C110   1.404       .  A
C109        C114   1.405       .  A
C109       C1813   1.483       .  S
C110        C111   1.401       .  A
C110        H115   1.084       .  S
C111        C112   1.402       .  A
C111       C1840   1.480       .  S
C112        C113   1.406       .  A
C112        H116   1.084       .  S
C113        C114   1.408       .  A
C113       C1800   1.489       .  S
C114        H117   1.083       .  S
C118        C119   1.403       .  A
C118        C123   1.404   1_565  A
C118       C1773   1.482       .  S
C119        C120   1.401       .  A
C119        H124   1.083       .  S
C120        C121   1.403       .  A
C120       C1833   1.483       .  S
C121        C122   1.405   1_565  A
C121        H125   1.083       .  S
C122        C123   1.405       .  A
C122       C1760   1.487       .  S
C123        H126   1.083       .  S
C127        C128   1.409       .  A
C127        C132   1.402       .  A
C127       C1720   1.483       .  S
C128        C129   1.412       .  A
C128        H133   1.083       .  S
C129        C130   1.404       .  A
C129       C1693   1.488       .  S
C130        C131   1.396       .  A
C130        H134   1.084       .  S
C131        C132   1.395       .  A
C131       C1733   1.468       .  S
C132        H135   1.084       .  S
C136        C137   1.392       .  A
C136        C141   1.399       .  A
C136       C1653   1.465       .  S
C137        C138   1.400       .  A
C137        H142   1.084       .  S
C138        C139   1.405       .  A
C138       C1740   1.482       .  S
C139        C140   1.410       .  A
C139        H143   1.083       .  S
C140        C141   1.405       .  A
C140       C1673   1.487       .  S
C141        H144   1.083       .  S
C145        C146   1.399       .  A
C145        C150   1.399       .  A
C145       C1613   1.472       .  S
C146        C147   1.400       .  A
C146        H151   1.084       .  S
C147        C148   1.403       .  A
C147       C1633   1.479       .  S
C148        C149   1.404       .  A
C148        H152   1.084       .  S
C149        C150   1.402       .  A
C149       C1593   1.473       .  S
C150        H153   1.084       .  S
C154        C155   1.405       .  A
C154        C159   1.401       .  A
C154       C1553   1.475       .  S
C155        C156   1.404       .  A
C155        H160   1.084       .  S
C156        C157   1.403       .  A
C156       C1573   1.478       .  S
C157        C158   1.399       .  A
C157        H161   1.084       .  S
C158        C159   1.398       .  A
C158       C1640   1.471       .  S
C159        H162   1.084       .  S
C163        C164   1.407       .  A
C163        C168   1.408   1_556  A
C163       C1520   1.489   1_556  S
C164        C165   1.403       .  A
C164        H169   1.084       .  S
C165        C166   1.401       .  A
C165       C1493   1.479       .  S
C166        C167   1.402       .  A
C166        H170   1.084       .  S
C167        C168   1.405   1_556  A
C167       C1533   1.482   1_556  S
C168        H171   1.083       .  S
C172        C173   1.403       .  A
C172        C177   1.405       .  A
C172       C1453   1.481       .  S
C173        C174   1.403       .  A
C173        H178   1.084       .  S
C174        C175   1.401       .  A
C174       C1540   1.481       .  S
C175        C176   1.405       .  A
C175        H179   1.084       .  S
C176        C177   1.409       .  A
C176       C1480   1.486       .  S
C177        H180   1.083       .  S
C181        C182   1.401       .  A
C181        C186   1.400       .  A
C181       C1400   1.472       .  S
C182        C183   1.399       .  A
C182        H187   1.084       .  S
C183        C184   1.398       .  A
C183       C1433   1.469       .  S
C184        C185   1.400       .  A
C184        H188   1.084       .  S
C185        C186   1.402       .  A
C185       C1413   1.470       .  S
C186        H189   1.084       .  S
C190        C191   1.399       .  A
C190        C195   1.402       .  A
C190       C1380   1.473       .  S
C191        C192   1.401       .  A
C191        H196   1.084       .  S
C192        C193   1.402       .  A
C192       C1440   1.476       .  S
C193        C194   1.403       .  A
C193        H197   1.084       .  S
C194        C195   1.404       .  A
C194       C1353   1.477       .  S
C195        H198   1.084       .  S
C199        C200   1.409       .  A
C199        C204   1.401       .  A
C199       C1293   1.485       .  S
C200        C201   1.410       .  A
C200        H205   1.083       .  S
C201        C202   1.403       .  A
C201       C1313   1.486       .  S
C202        C203   1.399       .  A
C202        H206   1.084       .  S
C203        C204   1.397       .  A
C203       C1333   1.469       .  S
C204        H207   1.084       .  S
C208        C209   1.403       .  A
C208        C213   1.405       .  A
C208       C1253   1.482       .  S
C209        C210   1.403       .  A
C209        H214   1.084   1_565  S
C210        C211   1.401       .  A
C210       C1340   1.480   1_565  S
C211        C212   1.402       .  A
C211        H215   1.084       .  S
C212        C213   1.406       .  A
C212       C1273   1.480       .  S
C213        H216   1.084       .  S
C217        C218   1.397       .  A
C217        C222   1.398       .  A
C217       C1213   1.465       .  S
C218        C219   1.403       .  A
C218        H223   1.084       .  S
C219        C220   1.404       .  A
C219       C1193   1.477       .  S
C220        C221   1.403       .  A
C220        H224   1.084       .  S
C221        C222   1.401       .  A
C221       C1240   1.475       .  S
C222        H225   1.084       .  S
C226        C227   1.401       .  A
C226        C231   1.404       .  A
C226       C1173   1.477       .  S
C227        C228   1.402       .  A
C227        H232   1.084       .  S
C228        C229   1.402       .  A
C228       C1233   1.477       .  S
C229        C230   1.403       .  A
C229        H233   1.084       .  S
C230        C231   1.403       .  A
C230       C1153   1.478   1_565  S
C231        H234   1.084   1_565  S
C235        C236   1.404       .  A
C235        C240   1.398       .  A
C235       C1113   1.476       .  S
C236        C237   1.406       .  A
C236        H241   1.084       .  S
C237        C238   1.408       .  A
C237       C1093   1.486       .  S
C238        C239   1.406       .  A
C238        H242   1.084       .  S
C239        C240   1.401       .  A
C239       C1140   1.481       .  S
C240        H243   1.084       .  S
C244        C245   1.399   1_565  A
C244        C249   1.404       .  A
C244       C1073   1.477       .  S
C245        C246   1.399       .  A
C245        H250   1.084       .  S
C246        C247   1.404   1_545  A
C246       C1133   1.477       .  S
C247        C248   1.408       .  A
C247        H251   1.084       .  S
C248        C249   1.406       .  A
C248       C1053   1.486       .  S
C249        H252   1.084       .  S
C253        C254   1.401       .  A
C253        C258   1.403       .  A
C253       C1013   1.472       .  S
C254        C255   1.402       .  A
C254        H259   1.084       .  S
C255        C256   1.401       .  A
C255       C1000   1.472       .  S
C256        C257   1.401       .  A
C256        H260   1.084       .  S
C257        C258   1.403       .  A
C257       C1040   1.476       .  S
C258        H261   1.084       .  S
C262        C263   1.400       .  A
C262        C267   1.398       .  A
C262        C960   1.467       .  S
C263        C264   1.404       .  A
C263        H268   1.084       .  S
C264        C265   1.406       .  A
C264        C973   1.482       .  S
C265        C266   1.404       .  A
C265        H269   1.084       .  S
C266        C267   1.400       .  A
C266       C1033   1.477       .  S
C267        H270   1.084       .  S
C271        C272   1.399       .  A
C271        C276   1.402       .  A
C271        C893   1.474       .  S
C272        C273   1.400       .  A
C272        H277   1.084       .  S
C273        C274   1.408       .  A
C273        C920   1.483       .  S
C274        C275   1.408       .  A
C274        H278   1.084       .  S
C275        C276   1.402       .  A
C275        C940   1.484       .  S
C276        H279   1.084       .  S
C280        C281   1.403       .  A
C280        C285   1.406   1_655  A
C280        C873   1.484       .  S
C281        C282   1.404       .  A
C281        H286   1.084       .  S
C282        C283   1.406       .  A
C282        C933   1.483       .  S
C283        C284   1.409   1_655  A
C283        H287   1.084       .  S
C284        C285   1.408       .  A
C284        C860   1.491       .  S
C285        H288   1.084       .  S
C289        C290   1.408       .  A
C289        C294   1.404   1_556  A
C289        C793   1.484       .  S
C290        C291   1.407       .  A
C290        H295   1.083       .  S
C291        C292   1.404       .  A
C291        C820   1.481       .  S
C292        C293   1.400       .  A
C292        H296   1.084       .  S
C293        C294   1.399   1_556  A
C293        C840   1.481   1_556  S
C294        H297   1.084       .  S
C298        C299   1.402       .  A
C298        C303   1.403       .  A
C298        C773   1.479       .  S
C299        C300   1.404       .  A
C299        H304   1.084       .  S
C300        C301   1.403       .  A
C300        C833   1.479       .  S
C301        C302   1.407       .  A
C301        H305   1.084       .  S
C302        C303   1.404       .  A
C302        C760   1.484       .  S
C303        H306   1.084       .  S
C307        C308   1.408       .  A
C307        C312   1.407       .  A
C307        C713   1.487       .  S
C308        C309   1.409       .  A
C308        H313   1.083       .  S
C309        C310   1.402       .  A
C309        C700   1.488       .  S
C310        C311   1.399       .  A
C310        H314   1.084       .  S
C311        C312   1.401       .  A
C311        C733   1.477       .  S
C312        H315   1.084       .  S
C316        C317   1.401       .  A
C316        C321   1.400   1_655  A
C316        C653   1.472       .  S
C317        C318   1.406       .  A
C317        H322   1.084       .  S
C318        C319   1.403       .  A
C318        C673   1.478       .  S
C319        C320   1.401   1_655  A
C319        H323   1.084       .  S
C320        C321   1.402       .  A
C320        C740   1.476       .  S
C321        H324   1.084       .  S
O325        C336   1.290       .  A
O325       Eu361   2.450       .  S
O326        C337   1.293       .  A
O326       Eu360   2.465       .  S
O327        C338   1.290       .  A
O327       Eu333   2.452       .  S
O328        C339   1.290       .  A
O328       Eu333   2.451       .  S
O329        C339   1.289       .  A
O329       Eu363   2.445       .  S
O330        C338   1.290       .  A
O330       Eu362   2.449       .  S
O331        C337   1.293       .  A
O331       Eu333   2.469       .  S
O332        C336   1.295       .  A
O332       Eu333   2.479       .  S
Eu333       O343   2.353       .  S
Eu333       O335   2.351       .  S
Eu333       O334   2.357       .  S
Eu333       O341   2.356       .  S
O334       Eu363   2.362       .  S
O334       Eu360   2.350       .  S
O335       Eu361   2.352       .  S
O335       Eu362   2.347       .  S
C336       C2420   1.493       .  S
C337       C1793   1.498       .  S
C338       C1660   1.487       .  S
C339        C680   1.487       .  S
H340        O341   0.965       .  S
O341       Eu362   2.347       .  S
O341       Eu360   2.356       .  S
H342        O343   0.965       .  S
O343       Eu361   2.347       .  S
O343       Eu363   2.341       .  S
O344        C367   1.290       .  A
O344       Eu360   2.453       .  S
O345        C368   1.293       .  A
O345       Eu361   2.463       .  S
O346        C369   1.291       .  A
O346       Eu362   2.452       .  S
O347        C370   1.290       .  A
O347       Eu363   2.447       .  S
O348        C371   1.296       .  A
O348       Eu363   2.485       .  S
O349        C372   1.290       .  A
O349       Eu362   2.452       .  S
O350        C373   1.294       .  A
O350       Eu364   2.475       .  S
O351        C374   1.290       .  A
O351       Eu364   2.450       .  S
O352        C373   1.289       .  A
O352       Eu362   2.448       .  S
O353        C374   1.293       .  A
O353       Eu363   2.464       .  S
O354        C369   1.290       .  A
O354       Eu360   2.453       .  S
O355        C372   1.290       .  A
O355       Eu361   2.453       .  S
O356        C371   1.290       .  A
O356       Eu361   2.451       .  S
O357        C370   1.294       .  A
O357       Eu360   2.471       .  S
O358        C367   1.293       .  A
O358       Eu364   2.471       .  S
O359        C368   1.287       .  A
O359       Eu364   2.432       .  S
Eu360       O378   2.349       .  S
Eu360       O366   2.354       .  S
Eu361       O365   2.349       .  S
Eu361       O376   2.345       .  S
Eu362       O376   2.344       .  S
Eu362       O366   2.348       .  S
Eu363       O365   2.344       .  S
Eu363       O378   2.355       .  S
Eu364       O365   2.364       .  S
Eu364       O376   2.353       .  S
Eu364       O378   2.349       .  S
Eu364       O366   2.336       .  S
C367       C2100   1.495       .  S
C368       C1753   1.477       .  S
C369       C2260   1.481       .  S
C370        C813   1.483       .  S
C371       C2320   1.500       .  S
C372       C1120   1.484       .  S
C373        C720   1.496       .  S
C374       C1500   1.490       .  S
H375        O376   0.965       .  S
H377        O378   0.965       .  S
O379        C390   1.291       .  A
O379       Eu415   2.458   1_556  S
O380        C391   1.291       .  A
O380       Eu414   2.456       .  S
O381        C392   1.291       .  A
O381       Eu387   2.455   1_456  S
O382        C393   1.288       .  A
O382       Eu387   2.435       .  S
O383        C393   1.293       .  A
O383       Eu417   2.464       .  S
O384        C392   1.291       .  A
O384       Eu416   2.454   1_566  S
O385        C391   1.293       .  A
O385       Eu387   2.465   1_455  S
O386        C390   1.295       .  A
O386       Eu387   2.480   1_556  S
Eu387       O397   2.355       .  S
Eu387       O389   2.345   1_554  S
Eu387       O388   2.356       .  S
Eu387       O395   2.349   1_655  S
O388       Eu417   2.339       .  S
O388       Eu414   2.351   1_655  S
O389       Eu415   2.356   1_556  S
O389       Eu416   2.353   1_666  S
C390       C2280   1.497       .  S
C391        C780   1.496       .  S
C392       C1780   1.477       .  S
C393       C2120   1.480       .  S
H394        O395   0.966       .  S
O395       Eu416   2.356   1_565  S
O395       Eu414   2.365       .  S
H396        O397   0.966       .  S
O397       Eu415   2.344       .  S
O397       Eu417   2.357       .  S
O398        C421   1.293       .  A
O398       Eu414   2.470   1_545  S
O399        C422   1.289       .  A
O399       Eu415   2.445   1_545  S
O400        C423   1.294       .  A
O400       Eu416   2.476       .  S
O401        C424   1.293       .  A
O401       Eu417   2.466       .  S
O402        C425   1.289       .  A
O402       Eu417   2.443       .  S
O403        C426   1.296   1_455  A
O403       Eu416   2.483   1_556  S
O404        C427   1.292       .  A
O404       Eu418   2.460   1_455  S
O405        C428   1.292   1_545  A
O405       Eu418   2.464       .  S
O406        C427   1.289       .  A
O406       Eu416   2.446       .  S
O407        C428   1.290       .  A
O407       Eu417   2.452       .  S
O408        C423   1.292   1_565  A
O408       Eu414   2.464       .  S
O409        C426   1.289       .  A
O409       Eu415   2.444   1_546  S
O410        C425   1.295       .  A
O410       Eu415   2.482       .  S
O411        C424   1.293   1_455  A
O411       Eu414   2.467       .  S
O412        C421   1.288       .  A
O412       Eu418   2.438   1_455  S
O413        C422   1.290       .  A
O413       Eu418   2.450       .  S
Eu414       O432   2.353   1_455  S
Eu414       O420   2.351   1_565  S
Eu415       O419   2.339       .  S
Eu415       O430   2.361   1_565  S
Eu416       O430   2.358   1_455  S
Eu416       O420   2.354       .  S
Eu417       O419   2.345       .  S
Eu417       O432   2.354       .  S
Eu418       O419   2.342   1_545  S
Eu418       O430   2.346       .  S
Eu418       O432   2.354   1_545  S
Eu418       O420   2.355   1_655  S
C421       C1893   1.491       .  S
C422        C800   1.487       .  S
C423       C1513   1.497       .  S
C424        C880   1.494       .  S
C425       C1460   1.497       .  S
C426        C660   1.484       .  S
C427       C2060   1.486       .  S
C428       C1260   1.491       .  S
H429        O430   0.965       .  S
H431        O432   0.966       .  S
O433        C444   1.287       .  A
O433       Eu469   2.434       .  S
O434        C445   1.291       .  A
O434       Eu468   2.456       .  S
O435        C446   1.287       .  A
O435       Eu441   2.430       .  S
O436        C447   1.292       .  A
O436       Eu441   2.460       .  S
O437        C447   1.290       .  A
O437       Eu471   2.447       .  S
O438        C446   1.293       .  A
O438       Eu470   2.467       .  S
O439        C445   1.291       .  A
O439       Eu441   2.452       .  S
O440        C444   1.295       .  A
O440       Eu441   2.481       .  S
Eu441       O451   2.346       .  S
Eu441       O443   2.346       .  S
Eu441       O442   2.342       .  S
Eu441       O449   2.367       .  S
O442       Eu471   2.346       .  S
O442       Eu468   2.342       .  S
O443       Eu469   2.342       .  S
O443       Eu470   2.354       .  S
C444       C2213   1.485       .  S
C445       C1160   1.488       .  S
C446        C993   1.478       .  S
C447       C1360   1.490       .  S
H448        O449   0.965       .  S
O449       Eu470   2.347       .  S
O449       Eu468   2.344       .  S
H450        O451   0.966       .  S
O451       Eu469   2.360       .  S
O451       Eu471   2.363       .  S
O452        C475   1.289       .  A
O452       Eu468   2.443       .  S
O453        C476   1.287       .  A
O453       Eu469   2.435       .  S
O454        C477   1.291       .  A
O454       Eu470   2.460       .  S
O455        C478   1.292       .  A
O455       Eu471   2.462       .  S
O456        C479   1.293       .  A
O456       Eu471   2.466       .  S
O457        C480   1.288       .  A
O457       Eu470   2.436       .  S
O458        C481   1.286       .  A
O458       Eu472   2.427       .  S
O459        C482   1.284       .  A
O459       Eu472   2.417       .  S
O460        C481   1.291       .  A
O460       Eu470   2.455       .  S
O461        C482   1.293       .  A
O461       Eu471   2.470       .  S
O462        C477   1.291       .  A
O462       Eu468   2.458       .  S
O463        C480   1.294       .  A
O463       Eu469   2.471       .  S
O464        C479   1.291       .  A
O464       Eu469   2.452       .  S
O465        C478   1.290       .  A
O465       Eu468   2.450       .  S
O466        C475   1.291       .  A
O466       Eu472   2.458       .  S
O467        C476   1.291       .  A
O467       Eu472   2.457       .  S
Eu468       O486   2.351       .  S
Eu468       O474   2.340       .  S
Eu469       O473   2.345       .  S
Eu469       O484   2.346       .  S
Eu470       O484   2.358       .  S
Eu470       O474   2.340       .  S
Eu471       O473   2.343       .  S
Eu471       O486   2.347       .  S
Eu472       O473   2.340       .  S
Eu472       O484   2.350       .  S
Eu472       O486   2.346       .  S
Eu472       O474   2.338       .  S
C475       C1860   1.489       .  S
C476       C1200   1.485       .  S
C477       C1960   1.488       .  S
C478       C1300   1.481       .  S
C479       C2020   1.489       .  S
C480       C1620   1.487       .  S
C481       C1420   1.478       .  S
C482        C900   1.476       .  S
H483        O484   0.966       .  S
H485        O486   0.965       .  S
O487        C498   1.292       .  A
O487       Eu523   2.462       .  S
O488        C499   1.292       .  A
O488       Eu522   2.463       .  S
O489        C500   1.292       .  A
O489       Eu495   2.461       .  S
O490        C501   1.291       .  A
O490       Eu495   2.457       .  S
O491        C501   1.289       .  A
O491       Eu525   2.442       .  S
O492        C500   1.292       .  A
O492       Eu524   2.465       .  S
O493        C499   1.288       .  A
O493       Eu495   2.437       .  S
O494        C498   1.291       .  A
O494       Eu495   2.455       .  S
Eu495       O505   2.347       .  S
Eu495       O497   2.343       .  S
Eu495       O496   2.351       .  S
Eu495       O503   2.354       .  S
O496       Eu525   2.348       .  S
O496       Eu522   2.352       .  S
O497       Eu523   2.359       .  S
O497       Eu524   2.345       .  S
C498       C2393   1.495       .  S
C499       C1560   1.487       .  S
C500       C1700   1.496       .  S
C501        C953   1.486       .  S
H502        O503   0.966       .  S
O503       Eu524   2.348       .  S
O503       Eu522   2.354       .  S
H504        O505   0.965       .  S
O505       Eu523   2.340       .  S
O505       Eu525   2.350       .  S
O506        C529   1.292       .  A
O506       Eu522   2.461       .  S
O507        C530   1.294       .  A
O507       Eu523   2.473       .  S
O508        C531   1.291       .  A
O508       Eu524   2.458       .  S
O509        C532   1.292       .  A
O509       Eu525   2.461       .  S
O510        C533   1.292       .  A
O510       Eu525   2.466       .  S
O511        C534   1.293       .  A
O511       Eu524   2.467       .  S
O512        C535   1.295       .  A
O512       Eu526   2.479       .  S
O513        C536   1.292       .  A
O513       Eu526   2.461       .  S
O514        C535   1.288       .  A
O514       Eu524   2.436       .  S
O515        C536   1.290       .  A
O515       Eu525   2.447       .  S
O516        C531   1.294       .  A
O516       Eu522   2.473       .  S
O517        C534   1.285       .  A
O517       Eu523   2.418       .  S
O518        C533   1.291       .  A
O518       Eu523   2.457       .  S
O519        C532   1.291       .  A
O519       Eu522   2.454       .  S
O520        C529   1.288       .  A
O520       Eu526   2.438       .  S
O521        C530   1.289       .  A
O521       Eu526   2.446       .  S
Eu522       O540   2.360       .  S
Eu522       O528   2.345       .  S
Eu523       O527   2.340       .  S
Eu523       O538   2.351       .  S
Eu524       O538   2.354       .  S
Eu524       O528   2.350       .  S
Eu525       O527   2.350       .  S
Eu525       O540   2.356       .  S
Eu526       O527   2.354       .  S
Eu526       O538   2.341       .  S
Eu526       O540   2.358       .  S
Eu526       O528   2.345       .  S
C529       C2360   1.481       .  S
C530       C1820   1.490       .  S
C531       C1100   1.497       .  S
C532       C2153   1.490       .  S
C533       C1060   1.496       .  S
C534       C2300   1.476       .  S
C535        C693   1.494       .  S
C536       C1680   1.480       .  S
H537        O538   0.965       .  S
H539        O540   0.966       .  S
O541        C552   1.290       .  A
O541       Eu577   2.450       .  S
O542        C553   1.294       .  A
O542       Eu576   2.476       .  S
O543        C554   1.290       .  A
O543       Eu549   2.450       .  S
O544        C555   1.293       .  A
O544       Eu549   2.468       .  S
O545        C555   1.289       .  A
O545       Eu579   2.447       .  S
O546        C554   1.291       .  A
O546       Eu578   2.457       .  S
O547        C553   1.290       .  A
O547       Eu549   2.451       .  S
O548        C552   1.289       .  A
O548       Eu549   2.440       .  S
Eu549       O559   2.346       .  S
Eu549       O551   2.354       .  S
Eu549       O550   2.340       .  S
Eu549       O557   2.349       .  S
O550       Eu579   2.352       .  S
O550       Eu576   2.342       .  S
O551       Eu577   2.344       .  S
O551       Eu578   2.344       .  S
C552       C2080   1.484       .  S
C553       C1280   1.492       .  S
C554       C1473   1.470       .  S
C555        C913   1.492       .  S
H556        O557   0.965       .  S
O557       Eu578   2.348       .  S
O557       Eu576   2.348       .  S
H558        O559   0.965       .  S
O559       Eu577   2.361       .  S
O559       Eu579   2.347       .  S
O560        C583   1.292       .  A
O560       Eu576   2.456       .  S
O561        C584   1.292       .  A
O561       Eu577   2.460       .  S
O562        C585   1.288       .  A
O562       Eu578   2.440       .  S
O563        C586   1.288       .  A
O563       Eu579   2.439       .  S
O564        C587   1.292       .  A
O564       Eu579   2.459       .  S
O565        C588   1.289       .  A
O565       Eu578   2.443       .  S
O566        C589   1.293       .  A
O566       Eu580   2.465       .  S
O567        C590   1.291       .  A
O567       Eu580   2.455       .  S
O568        C589   1.291       .  A
O568       Eu578   2.455       .  S
O569        C590   1.291       .  A
O569       Eu579   2.457       .  S
O570        C585   1.289       .  A
O570       Eu576   2.446       .  S
O571        C588   1.294       .  A
O571       Eu577   2.475       .  S
O572        C587   1.288       .  A
O572       Eu577   2.436       .  S
O573        C586   1.292       .  A
O573       Eu576   2.460       .  S
O574        C583   1.293       .  A
O574       Eu580   2.464       .  S
O575        C584   1.292       .  A
O575       Eu580   2.461       .  S
Eu576       O594   2.357       .  S
Eu576       O582   2.356       .  S
Eu577       O581   2.354       .  S
Eu577       O592   2.342       .  S
Eu578       O592   2.351       .  S
Eu578       O582   2.348       .  S
Eu579       O581   2.343       .  S
Eu579       O594   2.351       .  S
Eu580       O581   2.348       .  S
Eu580       O592   2.355       .  S
Eu580       O594   2.354       .  S
Eu580       O582   2.349       .  S
C583       C1980   1.481       .  S
C584       C1320   1.493       .  S
C585       C1873   1.484       .  S
C586       C1220   1.484       .  S
C587       C1920   1.485       .  S
C588        C753   1.490       .  S
C589        C853   1.487       .  S
C590       C1373   1.493       .  S
H591        O592   0.966       .  S
H593        O594   0.966       .  S
O595        C606   1.290   1_455  A
O595       Eu631   2.453       .  S
O596        C607   1.291       .  A
O596       Eu630   2.456       .  S
O597        C608   1.289   1_565  A
O597       Eu603   2.443       .  S
O598        C609   1.288       .  A
O598       Eu603   2.440       .  S
O599        C609   1.293       .  A
O599       Eu633   2.467       .  S
O600        C608   1.293       .  A
O600       Eu632   2.467       .  S
O601        C607   1.288       .  A
O601       Eu603   2.441       .  S
O602        C606   1.290       .  A
O602       Eu603   2.454   1_545  S
Eu603       O613   2.343       .  S
Eu603       O605   2.343   1_565  S
Eu603       O604   2.344       .  S
Eu603       O611   2.353       .  S
O604       Eu633   2.347       .  S
O604       Eu630   2.349       .  S
O605       Eu631   2.346   1_655  S
O605       Eu632   2.353       .  S
C606       C2373   1.476       .  S
C607       C1580   1.489       .  S
C608       C1020   1.484       .  S
C609       C1713   1.486       .  S
H610        O611   0.966       .  S
O611       Eu632   2.355   1_565  S
O611       Eu630   2.338       .  S
H612        O613   0.966       .  S
O613       Eu631   2.345   1_665  S
O613       Eu633   2.356       .  S
O614        C637   1.288       .  A
O614       Eu630   2.434       .  S
O615        C638   1.288       .  A
O615       Eu631   2.434       .  S
O616        C639   1.288       .  A
O616       Eu632   2.440   1_565  S
O617        C640   1.292       .  A
O617       Eu633   2.462       .  S
O618        C641   1.288       .  A
O618       Eu633   2.437   1_455  S
O619        C642   1.290       .  A
O619       Eu632   2.447   1_455  S
O620        C643   1.285       .  A
O620       Eu634   2.421   1_545  S
O621        C644   1.290       .  A
O621       Eu634   2.453       .  S
O622        C643   1.295       .  A
O622       Eu632   2.480   1_455  S
O623        C644   1.292       .  A
O623       Eu633   2.466   1_455  S
O624        C639   1.295       .  A
O624       Eu630   2.481       .  S
O625        C642   1.292       .  A
O625       Eu631   2.464       .  S
O626        C641   1.293   1_545  A
O626       Eu631   2.470       .  S
O627        C640   1.288       .  A
O627       Eu630   2.435       .  S
O628        C637   1.295   1_455  A
O628       Eu634   2.484       .  S
O629        C638   1.291       .  A
O629       Eu634   2.457   1_545  S
Eu630       O648   2.363       .  S
Eu630       O636   2.343       .  S
Eu631       O635   2.354   1_545  S
Eu631       O646   2.352       .  S
Eu632       O646   2.342   1_655  S
Eu632       O636   2.349   1_545  S
Eu633       O635   2.351   1_655  S
Eu633       O648   2.351       .  S
Eu634       O635   2.346       .  S
Eu634       O646   2.358   1_565  S
Eu634       O648   2.339   1_455  S
Eu634       O636   2.353   1_455  S
C637       C2000   1.483       .  S
C638       C1600   1.470       .  S
C639       C1180   1.492       .  S
C640       C2193   1.485       .  S
C641       C1080   1.473       .  S
C642       C2180   1.492       .  S
C643       C1393   1.484       .  S
C644        C980   1.493       .  S
H645        O646   0.965       .  S
H647        O648   0.966       .  S
C649        C650   1.405       .  A
C649        C654   1.399       .  A
C649        F667   1.358       .  S
C650        C651   1.406       .  A
C650        C655   1.480       .  S
C651        C652   1.400       .  A
C651        F656   1.358       .  S
C652        C653   1.403       .  A
C652        F668   1.358       .  S
C653        C654   1.403       .  A
C654        F657   1.358       .  S
C655        C658   1.402       .  A
C655        C662   1.406   1_655  A
C658        C659   1.398       .  A
C658        F663   1.358       .  S
C659        C660   1.412       .  A
C659        F665   1.358       .  S
C660        C661   1.408   1_655  A
C661        C662   1.402       .  A
C661        F664   1.358       .  S
C662        F666   1.358       .  S
C669        C670   1.408       .  A
C669        C674   1.395       .  A
C669        F687   1.358       .  S
C670        C671   1.406       .  A
C670        C675   1.481       .  S
C671        C672   1.399       .  A
C671        F676   1.358       .  S
C672        C673   1.407       .  A
C672        F688   1.358       .  S
C673        C674   1.404       .  A
C674        F677   1.358       .  S
C675        C678   1.405       .  A
C675        C682   1.403       .  A
C678        C679   1.398       .  A
C678        F683   1.358       .  S
C679        C680   1.413       .  A
C679        F685   1.358       .  S
C680        C681   1.413       .  A
C681        C682   1.393       .  A
C681        F684   1.358       .  S
C682        F686   1.358       .  S
C689        C690   1.401       .  A
C689        C694   1.396       .  A
C689        F707   1.358       .  S
C690        C691   1.405       .  A
C690        C695   1.482       .  S
C691        C692   1.401       .  A
C691        F696   1.358       .  S
C692        C693   1.412       .  A
C692        F708   1.358       .  S
C693        C694   1.417       .  A
C694        F697   1.358       .  S
C695        C698   1.404       .  A
C695        C702   1.406       .  A
C698        C699   1.398       .  A
C698        F703   1.358       .  S
C699        C700   1.411       .  A
C699        F705   1.358       .  S
C700        C701   1.409       .  A
C701        C702   1.399       .  A
C701        F704   1.358       .  S
C702        F706   1.358       .  S
C709        C710   1.408       .  A
C709        C714   1.404       .  A
C709        F727   1.358       .  S
C710        C711   1.406       .  A
C710        C715   1.487       .  S
C711        C712   1.396       .  A
C711        F716   1.358       .  S
C712        C713   1.408       .  A
C712        F728   1.358       .  S
C713        C714   1.409       .  A
C714        F717   1.358       .  S
C715        C718   1.405       .  A
C715        C722   1.404       .  A
C718        C719   1.399       .  A
C718        F723   1.358       .  S
C719        C720   1.412       .  A
C719        F725   1.358       .  S
C720        C721   1.416       .  A
C721        C722   1.400       .  A
C721        F724   1.358       .  S
C722        F726   1.358       .  S
C729        C730   1.404       .  A
C729        C734   1.396       .  A
C729        F747   1.358       .  S
C730        C731   1.406       .  A
C730        C735   1.478       .  S
C731        C732   1.400       .  A
C731        F736   1.358       .  S
C732        C733   1.405       .  A
C732        F748   1.358       .  S
C733        C734   1.406       .  A
C734        F737   1.358       .  S
C735        C738   1.405       .  A
C735        C742   1.406       .  A
C738        C739   1.396       .  A
C738        F743   1.358       .  S
C739        C740   1.404       .  A
C739        F745   1.358       .  S
C740        C741   1.406       .  A
C741        C742   1.399       .  A
C741        F744   1.358       .  S
C742        F746   1.358       .  S
C749        C750   1.403       .  A
C749        C754   1.398       .  A
C749        F767   1.358       .  S
C750        C751   1.407       .  A
C750        C755   1.485       .  S
C751        C752   1.401       .  A
C751        F756   1.358       .  S
C752        C753   1.410       .  A
C752        F768   1.358       .  S
C753        C754   1.414       .  A
C754        F757   1.358       .  S
C755        C758   1.408       .  A
C755        C762   1.405       .  A
C758        C759   1.401       .  A
C758        F763   1.358       .  S
C759        C760   1.407       .  A
C759        F765   1.358       .  S
C760        C761   1.407       .  A
C761        C762   1.398       .  A
C761        F764   1.358       .  S
C762        F766   1.358       .  S
C769        C770   1.407       .  A
C769        C774   1.399       .  A
C769        F787   1.358       .  S
C770        C771   1.406       .  A
C770        C775   1.482       .  S
C771        C772   1.400       .  A
C771        F776   1.357       .  S
C772        C773   1.405       .  A
C772        F788   1.358       .  S
C773        C774   1.405       .  A
C774        F777   1.358       .  S
C775        C778   1.403       .  A
C775        C782   1.402       .  A
C778        C779   1.401       .  A
C778        F783   1.358       .  S
C779        C780   1.416       .  A
C779        F785   1.358       .  S
C780        C781   1.414       .  A
C781        C782   1.399       .  A
C781        F784   1.357       .  S
C782        F786   1.358       .  S
C789        C790   1.406       .  A
C789        C794   1.401       .  A
C789        F807   1.358       .  S
C790        C791   1.404       .  A
C790        C795   1.479       .  S
C791        C792   1.394       .  A
C791        F796   1.358       .  S
C792        C793   1.408   1_554  A
C792        F808   1.358   1_554  S
C793        C794   1.408   1_556  A
C794        F797   1.357       .  S
C795        C798   1.402       .  A
C795        C802   1.404       .  A
C798        C799   1.395       .  A
C798        F803   1.358   1_554  S
C799        C800   1.413       .  A
C799        F805   1.358       .  S
C800        C801   1.413       .  A
C801        C802   1.397       .  A
C801        F804   1.358       .  S
C802        F806   1.358       .  S
C809        C810   1.401       .  A
C809        C814   1.398       .  A
C809        F827   1.358       .  S
C810        C811   1.404       .  A
C810        C815   1.475       .  S
C811        C812   1.400       .  A
C811        F816   1.358       .  S
C812        C813   1.410       .  A
C812        F828   1.358       .  S
C813        C814   1.411       .  A
C814        F817   1.358       .  S
C815        C818   1.401       .  A
C815        C822   1.406       .  A
C818        C819   1.395       .  A
C818        F823   1.358       .  S
C819        C820   1.407       .  A
C819        F825   1.358       .  S
C820        C821   1.408       .  A
C821        C822   1.403       .  A
C821        F824   1.358       .  S
C822        F826   1.358       .  S
C829        C830   1.405       .  A
C829        C834   1.403       .  A
C829        F847   1.358       .  S
C830        C831   1.404   1_455  A
C830        C835   1.477   1_455  S
C831        C832   1.396   1_655  A
C831        F836   1.358       .  S
C832        C833   1.405       .  A
C832        F848   1.358   1_455  S
C833        C834   1.408       .  A
C834        F837   1.358       .  S
C835        C838   1.403       .  A
C835        C842   1.405       .  A
C838        C839   1.395       .  A
C838        F843   1.358       .  S
C839        C840   1.406       .  A
C839        F845   1.358       .  S
C840        C841   1.409   1_554  A
C841        C842   1.401   1_556  A
C841        F844   1.358       .  S
C842        F846   1.358   1_654  S
C849        C850   1.405       .  A
C849        C854   1.402       .  A
C849        F867   1.358       .  S
C850        C851   1.403       .  A
C850        C855   1.484       .  S
C851        C852   1.398       .  A
C851        F856   1.358       .  S
C852        C853   1.410       .  A
C852        F868   1.358       .  S
C853        C854   1.412       .  A
C854        F857   1.358       .  S
C855        C858   1.405       .  A
C855        C862   1.405       .  A
C858        C859   1.401       .  A
C858        F863   1.358       .  S
C859        C860   1.410       .  A
C859        F865   1.358       .  S
C860        C861   1.409       .  A
C861        C862   1.402       .  A
C861        F864   1.358       .  S
C862        F866   1.358       .  S
C869        C870   1.405       .  A
C869        C874   1.404       .  A
C869        F887   1.358       .  S
C870        C871   1.404       .  A
C870        C875   1.481       .  S
C871        C872   1.400       .  A
C871        F876   1.358   1_655  S
C872        C873   1.406       .  A
C872        F888   1.358   1_655  S
C873        C874   1.408       .  A
C874        F877   1.358       .  S
C875        C878   1.402   1_655  A
C875        C882   1.403       .  A
C878        C879   1.401       .  A
C878        F883   1.358       .  S
C879        C880   1.413   1_455  A
C879        F885   1.358       .  S
C880        C881   1.413       .  A
C881        C882   1.403       .  A
C881        F884   1.358       .  S
C882        F886   1.358       .  S
C889        C890   1.401       .  A
C889        C894   1.395       .  A
C889        F907   1.358       .  S
C890        C891   1.401       .  A
C890        C895   1.464       .  S
C891        C892   1.396       .  A
C891        F896   1.358       .  S
C892        C893   1.409       .  A
C892        F908   1.358       .  S
C893        C894   1.405       .  A
C894        F897   1.357       .  S
C895        C898   1.401       .  A
C895        C902   1.399       .  A
C898        C899   1.396       .  A
C898        F903   1.357       .  S
C899        C900   1.408       .  A
C899        F905   1.358       .  S
C900        C901   1.413       .  A
C901        C902   1.393       .  A
C901        F904   1.359       .  S
C902        F906   1.358       .  S
C909        C910   1.402       .  A
C909        C914   1.397       .  A
C909        F927   1.358       .  S
C910        C911   1.403       .  A
C910        C915   1.479       .  S
C911        C912   1.400       .  A
C911        F916   1.358       .  S
C912        C913   1.415       .  A
C912        F928   1.358       .  S
C913        C914   1.412       .  A
C914        F917   1.357       .  S
C915        C918   1.404       .  A
C915        C922   1.405       .  A
C918        C919   1.397       .  A
C918        F923   1.358       .  S
C919        C920   1.409       .  A
C919        F925   1.358       .  S
C920        C921   1.406       .  A
C921        C922   1.400       .  A
C921        F924   1.358       .  S
C922        F926   1.358       .  S
C929        C930   1.408       .  A
C929        C934   1.401       .  A
C929        F947   1.358       .  S
C930        C931   1.407       .  A
C930        C935   1.489       .  S
C931        C932   1.402       .  A
C931        F936   1.358       .  S
C932        C933   1.407       .  A
C932        F948   1.358       .  S
C933        C934   1.404       .  A
C934        F937   1.358       .  S
C935        C938   1.407       .  A
C935        C942   1.408       .  A
C938        C939   1.400       .  A
C938        F943   1.358       .  S
C939        C940   1.405       .  A
C939        F945   1.358       .  S
C940        C941   1.408       .  A
C941        C942   1.403       .  A
C941        F944   1.358       .  S
C942        F946   1.358       .  S
C949        C950   1.400       .  A
C949        C954   1.397       .  A
C949        F967   1.358       .  S
C950        C951   1.398       .  A
C950        C955   1.467       .  S
C951        C952   1.394       .  A
C951        F956   1.358       .  S
C952        C953   1.415       .  A
C952        F968   1.358       .  S
C953        C954   1.413       .  A
C954        F957   1.358       .  S
C955        C958   1.402       .  A
C955        C962   1.403       .  A
C958        C959   1.395       .  A
C958        F963   1.358       .  S
C959        C960   1.402       .  A
C959        F965   1.358       .  S
C960        C961   1.404       .  A
C961        C962   1.398       .  A
C961        F964   1.358       .  S
C962        F966   1.358       .  S
C969        C970   1.404       .  A
C969        C974   1.402       .  A
C969        F987   1.358       .  S
C970        C971   1.403       .  A
C970        C975   1.477       .  S
C971        C972   1.397       .  A
C971        F976   1.358       .  S
C972        C973   1.406       .  A
C972        F988   1.358       .  S
C973        C974   1.409       .  A
C974        F977   1.358       .  S
C975        C978   1.401       .  A
C975        C982   1.402       .  A
C978        C979   1.399       .  A
C978        F983   1.358       .  S
C979        C980   1.414       .  A
C979        F985   1.358       .  S
C980        C981   1.415       .  A
C981        C982   1.400       .  A
C981        F984   1.358       .  S
C982        F986   1.358       .  S
C989        C990   1.407       .  A
C989        C994   1.398       .  A
C989       F1007   1.358       .  S
C990        C991   1.403       .  A
C990        C995   1.479       .  S
C991        C992   1.393       .  A
C991        F996   1.358       .  S
C992        C993   1.412       .  A
C992       F1008   1.359       .  S
C993        C994   1.407       .  A
C994        F997   1.358       .  S
C995        C998   1.408       .  A
C995       C1002   1.406       .  A
C998        C999   1.397       .  A
C998       F1003   1.358       .  S
C999       C1000   1.403       .  A
C999       F1005   1.358       .  S
C1000      C1001   1.404       .  A
C1001      C1002   1.395       .  A
C1001      F1004   1.358       .  S
C1002      F1006   1.358       .  S
C1009      C1010   1.404       .  A
C1009      C1014   1.397       .  A
C1009      F1027   1.358       .  S
C1010      C1011   1.402       .  A
C1010      C1015   1.471       .  S
C1011      C1012   1.399       .  A
C1011      F1016   1.357       .  S
C1012      C1013   1.405       .  A
C1012      F1028   1.358       .  S
C1013      C1014   1.404       .  A
C1014      F1017   1.358       .  S
C1015      C1018   1.400       .  A
C1015      C1022   1.401       .  A
C1018      C1019   1.398       .  A
C1018      F1023   1.357       .  S
C1019      C1020   1.411       .  A
C1019      F1025   1.358       .  S
C1020      C1021   1.414       .  A
C1021      C1022   1.397       .  A
C1021      F1024   1.358   1_545  S
C1022      F1026   1.358   1_545  S
C1029      C1030   1.405       .  A
C1029      C1034   1.397       .  A
C1029      F1047   1.358       .  S
C1030      C1031   1.406       .  A
C1030      C1035   1.479       .  S
C1031      C1032   1.399       .  A
C1031      F1036   1.358   1_565  S
C1032      C1033   1.405       .  A
C1032      F1048   1.358       .  S
C1033      C1034   1.405       .  A
C1034      F1037   1.358       .  S
C1035      C1038   1.405       .  A
C1035      C1042   1.406   1_565  A
C1038      C1039   1.398       .  A
C1038      F1043   1.358       .  S
C1039      C1040   1.406   1_565  A
C1039      F1045   1.358       .  S
C1040      C1041   1.405       .  A
C1041      C1042   1.399       .  A
C1041      F1044   1.358       .  S
C1042      F1046   1.358       .  S
C1049      C1050   1.405       .  A
C1049      C1054   1.397       .  A
C1049      F1067   1.358       .  S
C1050      C1051   1.404       .  A
C1050      C1055   1.480       .  S
C1051      C1052   1.402       .  A
C1051      F1056   1.358       .  S
C1052      C1053   1.410       .  A
C1052      F1068   1.358       .  S
C1053      C1054   1.407       .  A
C1054      F1057   1.358       .  S
C1055      C1058   1.401       .  A
C1055      C1062   1.403       .  A
C1058      C1059   1.397       .  A
C1058      F1063   1.358       .  S
C1059      C1060   1.415       .  A
C1059      F1065   1.358       .  S
C1060      C1061   1.415       .  A
C1061      C1062   1.402       .  A
C1061      F1064   1.358       .  S
C1062      F1066   1.358       .  S
C1069      C1070   1.403       .  A
C1069      C1074   1.399       .  A
C1069      F1087   1.358   1_565  S
C1070      C1071   1.401       .  A
C1070      C1075   1.470       .  S
C1071      C1072   1.395       .  A
C1071      F1076   1.358       .  S
C1072      C1073   1.406       .  A
C1072      F1088   1.358       .  S
C1073      C1074   1.408       .  A
C1074      F1077   1.358       .  S
C1075      C1078   1.404       .  A
C1075      C1082   1.400       .  A
C1078      C1079   1.399       .  A
C1078      F1083   1.358   1_565  S
C1079      C1080   1.406       .  A
C1079      F1085   1.358   1_565  S
C1080      C1081   1.408       .  A
C1081      C1082   1.394       .  A
C1081      F1084   1.356       .  S
C1082      F1086   1.358       .  S
C1089      C1090   1.405       .  A
C1089      C1094   1.402       .  A
C1089      F1107   1.358       .  S
C1090      C1091   1.405       .  A
C1090      C1095   1.484       .  S
C1091      C1092   1.401       .  A
C1091      F1096   1.358       .  S
C1092      C1093   1.408       .  A
C1092      F1108   1.358       .  S
C1093      C1094   1.408       .  A
C1094      F1097   1.358       .  S
C1095      C1098   1.404       .  A
C1095      C1102   1.401       .  A
C1098      C1099   1.403       .  A
C1098      F1103   1.358       .  S
C1099      C1100   1.413       .  A
C1099      F1105   1.358       .  S
C1100      C1101   1.416       .  A
C1101      C1102   1.400       .  A
C1101      F1104   1.358       .  S
C1102      F1106   1.358       .  S
C1109      C1110   1.406       .  A
C1109      C1114   1.400       .  A
C1109      F1127   1.358       .  S
C1110      C1111   1.404       .  A
C1110      C1115   1.478       .  S
C1111      C1112   1.396       .  A
C1111      F1116   1.358       .  S
C1112      C1113   1.404       .  A
C1112      F1128   1.358       .  S
C1113      C1114   1.406       .  A
C1114      F1117   1.358       .  S
C1115      C1118   1.402       .  A
C1115      C1122   1.404       .  A
C1118      C1119   1.395       .  A
C1118      F1123   1.358       .  S
C1119      C1120   1.410       .  A
C1119      F1125   1.358       .  S
C1120      C1121   1.411       .  A
C1121      C1122   1.400       .  A
C1121      F1124   1.358       .  S
C1122      F1126   1.358       .  S
C1129      C1130   1.404       .  A
C1129      C1134   1.402       .  A
C1129      F1147   1.358       .  S
C1130      C1131   1.404       .  A
C1130      C1135   1.475       .  S
C1131      C1132   1.394       .  A
C1131      F1136   1.358       .  S
C1132      C1133   1.405       .  A
C1132      F1148   1.358       .  S
C1133      C1134   1.407       .  A
C1134      F1137   1.358       .  S
C1135      C1138   1.405       .  A
C1135      C1142   1.402       .  A
C1138      C1139   1.402       .  A
C1138      F1143   1.358       .  S
C1139      C1140   1.407       .  A
C1139      F1145   1.358       .  S
C1140      C1141   1.408       .  A
C1141      C1142   1.394       .  A
C1141      F1144   1.358       .  S
C1142      F1146   1.358       .  S
C1149      C1150   1.406       .  A
C1149      C1154   1.398       .  A
C1149      F1167   1.358       .  S
C1150      C1151   1.404       .  A
C1150      C1155   1.478       .  S
C1151      C1152   1.397       .  A
C1151      F1156   1.358       .  S
C1152      C1153   1.406       .  A
C1152      F1168   1.358       .  S
C1153      C1154   1.406       .  A
C1154      F1157   1.358       .  S
C1155      C1158   1.403       .  A
C1155      C1162   1.402       .  A
C1158      C1159   1.399       .  A
C1158      F1163   1.358       .  S
C1159      C1160   1.414       .  A
C1159      F1165   1.358       .  S
C1160      C1161   1.413       .  A
C1161      C1162   1.395       .  A
C1161      F1164   1.358       .  S
C1162      F1166   1.358       .  S
C1169      C1170   1.406       .  A
C1169      C1174   1.400       .  A
C1169      F1187   1.358       .  S
C1170      C1171   1.405       .  A
C1170      C1175   1.480       .  S
C1171      C1172   1.398       .  A
C1171      F1176   1.358   1_565  S
C1172      C1173   1.405       .  A
C1172      F1188   1.358       .  S
C1173      C1174   1.406       .  A
C1174      F1177   1.358       .  S
C1175      C1178   1.404       .  A
C1175      C1182   1.402       .  A
C1178      C1179   1.401       .  A
C1178      F1183   1.358       .  S
C1179      C1180   1.411       .  A
C1179      F1185   1.357       .  S
C1180      C1181   1.415       .  A
C1181      C1182   1.397       .  A
C1181      F1184   1.358   1_565  S
C1182      F1186   1.358   1_565  S
C1189      C1190   1.404       .  A
C1189      C1194   1.396       .  A
C1189      F1207   1.358       .  S
C1190      C1191   1.401       .  A
C1190      C1195   1.471       .  S
C1191      C1192   1.396       .  A
C1191      F1196   1.358       .  S
C1192      C1193   1.408       .  A
C1192      F1208   1.358       .  S
C1193      C1194   1.407       .  A
C1194      F1197   1.358       .  S
C1195      C1198   1.399       .  A
C1195      C1202   1.401       .  A
C1198      C1199   1.395       .  A
C1198      F1203   1.358       .  S
C1199      C1200   1.414       .  A
C1199      F1205   1.358       .  S
C1200      C1201   1.413       .  A
C1201      C1202   1.397       .  A
C1201      F1204   1.358       .  S
C1202      F1206   1.358       .  S
C1209      C1210   1.402       .  A
C1209      C1214   1.396       .  A
C1209      F1227   1.358       .  S
C1210      C1211   1.403       .  A
C1210      C1215   1.467       .  S
C1211      C1212   1.397       .  A
C1211      F1216   1.358       .  S
C1212      C1213   1.403       .  A
C1212      F1228   1.358       .  S
C1213      C1214   1.402       .  A
C1214      F1217   1.358       .  S
C1215      C1218   1.398       .  A
C1215      C1222   1.400       .  A
C1218      C1219   1.396       .  A
C1218      F1223   1.358       .  S
C1219      C1220   1.415       .  A
C1219      F1225   1.358       .  S
C1220      C1221   1.412       .  A
C1221      C1222   1.396       .  A
C1221      F1224   1.358       .  S
C1222      F1226   1.358       .  S
C1229      C1230   1.404       .  A
C1229      C1234   1.398       .  A
C1229      F1247   1.358       .  S
C1230      C1231   1.403       .  A
C1230      C1235   1.473       .  S
C1231      C1232   1.397       .  A
C1231      F1236   1.358       .  S
C1232      C1233   1.407       .  A
C1232      F1248   1.358       .  S
C1233      C1234   1.406       .  A
C1234      F1237   1.358       .  S
C1235      C1238   1.403       .  A
C1235      C1242   1.404       .  A
C1238      C1239   1.397       .  A
C1238      F1243   1.358       .  S
C1239      C1240   1.406       .  A
C1239      F1245   1.358       .  S
C1240      C1241   1.405       .  A
C1241      C1242   1.397       .  A
C1241      F1244   1.358       .  S
C1242      F1246   1.358       .  S
C1249      C1250   1.404       .  A
C1249      C1254   1.399       .  A
C1249      F1267   1.358   1_565  S
C1250      C1251   1.407       .  A
C1250      C1255   1.482       .  S
C1251      C1252   1.400       .  A
C1251      F1256   1.358       .  S
C1252      C1253   1.406       .  A
C1252      F1268   1.358       .  S
C1253      C1254   1.407       .  A
C1254      F1257   1.358   1_565  S
C1255      C1258   1.406   1_565  A
C1255      C1262   1.401       .  A
C1258      C1259   1.402       .  A
C1258      F1263   1.358       .  S
C1259      C1260   1.413   1_545  A
C1259      F1265   1.358       .  S
C1260      C1261   1.414       .  A
C1261      C1262   1.396       .  A
C1261      F1264   1.358       .  S
C1262      F1266   1.358       .  S
C1269      C1270   1.404       .  A
C1269      C1274   1.400       .  A
C1269      F1287   1.358       .  S
C1270      C1271   1.406       .  A
C1270      C1275   1.480       .  S
C1271      C1272   1.399       .  A
C1271      F1276   1.358       .  S
C1272      C1273   1.406       .  A
C1272      F1288   1.358       .  S
C1273      C1274   1.408       .  A
C1274      F1277   1.358       .  S
C1275      C1278   1.404       .  A
C1275      C1282   1.402       .  A
C1278      C1279   1.401       .  A
C1278      F1283   1.358       .  S
C1279      C1280   1.412       .  A
C1279      F1285   1.358       .  S
C1280      C1281   1.414       .  A
C1281      C1282   1.399       .  A
C1281      F1284   1.358       .  S
C1282      F1286   1.358       .  S
C1289      C1290   1.405       .  A
C1289      C1294   1.400       .  A
C1289      F1307   1.358       .  S
C1290      C1291   1.402       .  A
C1290      C1295   1.478       .  S
C1291      C1292   1.398       .  A
C1291      F1296   1.358       .  S
C1292      C1293   1.411       .  A
C1292      F1308   1.358       .  S
C1293      C1294   1.406       .  A
C1294      F1297   1.357       .  S
C1295      C1298   1.404       .  A
C1295      C1302   1.403       .  A
C1298      C1299   1.400       .  A
C1298      F1303   1.358       .  S
C1299      C1300   1.410       .  A
C1299      F1305   1.358       .  S
C1300      C1301   1.408       .  A
C1301      C1302   1.397       .  A
C1301      F1304   1.358       .  S
C1302      F1306   1.358       .  S
C1309      C1310   1.406       .  A
C1309      C1314   1.398   1_455  A
C1309      F1327   1.358       .  S
C1310      C1311   1.406   1_455  A
C1310      C1315   1.484       .  S
C1311      C1312   1.402       .  A
C1311      F1316   1.358       .  S
C1312      C1313   1.410       .  A
C1312      F1328   1.358       .  S
C1313      C1314   1.406       .  A
C1314      F1317   1.358       .  S
C1315      C1318   1.405       .  A
C1315      C1322   1.403       .  A
C1318      C1319   1.401       .  A
C1318      F1323   1.358       .  S
C1319      C1320   1.414       .  A
C1319      F1325   1.358       .  S
C1320      C1321   1.412       .  A
C1321      C1322   1.398       .  A
C1321      F1324   1.358       .  S
C1322      F1326   1.358       .  S
C1329      C1330   1.406       .  A
C1329      C1334   1.397       .  A
C1329      F1347   1.358       .  S
C1330      C1331   1.405       .  A
C1330      C1335   1.476       .  S
C1331      C1332   1.396       .  A
C1331      F1336   1.358       .  S
C1332      C1333   1.403       .  A
C1332      F1348   1.358       .  S
C1333      C1334   1.403       .  A
C1334      F1337   1.358       .  S
C1335      C1338   1.404       .  A
C1335      C1342   1.405       .  A
C1338      C1339   1.396       .  A
C1338      F1343   1.358       .  S
C1339      C1340   1.407       .  A
C1339      F1345   1.358       .  S
C1340      C1341   1.407       .  A
C1341      C1342   1.398       .  A
C1341      F1344   1.358       .  S
C1342      F1346   1.358       .  S
C1349      C1350   1.407       .  A
C1349      C1354   1.398       .  A
C1349      F1367   1.358       .  S
C1350      C1351   1.405       .  A
C1350      C1355   1.480       .  S
C1351      C1352   1.397       .  A
C1351      F1356   1.358       .  S
C1352      C1353   1.406   1_655  A
C1352      F1368   1.358   1_655  S
C1353      C1354   1.405   1_455  A
C1354      F1357   1.358       .  S
C1355      C1358   1.403       .  A
C1355      C1362   1.404       .  A
C1358      C1359   1.396       .  A
C1358      F1363   1.358       .  S
C1359      C1360   1.413       .  A
C1359      F1365   1.358       .  S
C1360      C1361   1.414       .  A
C1361      C1362   1.399       .  A
C1361      F1364   1.358       .  S
C1362      F1366   1.358       .  S
C1369      C1370   1.401       .  A
C1369      C1374   1.400       .  A
C1369      F1387   1.358       .  S
C1370      C1371   1.399       .  A
C1370      C1375   1.473       .  S
C1371      C1372   1.396       .  A
C1371      F1376   1.358       .  S
C1372      C1373   1.415       .  A
C1372      F1388   1.358       .  S
C1373      C1374   1.416       .  A
C1374      F1377   1.358       .  S
C1375      C1378   1.404       .  A
C1375      C1382   1.404       .  A
C1378      C1379   1.399       .  A
C1378      F1383   1.358       .  S
C1379      C1380   1.406       .  A
C1379      F1385   1.358       .  S
C1380      C1381   1.404       .  A
C1381      C1382   1.396       .  A
C1381      F1384   1.358       .  S
C1382      F1386   1.358       .  S
C1389      C1390   1.402       .  A
C1389      C1394   1.399       .  A
C1389      F1407   1.358       .  S
C1390      C1391   1.396       .  A
C1390      C1395   1.467       .  S
C1391      C1392   1.393       .  A
C1391      F1396   1.358       .  S
C1392      C1393   1.416       .  A
C1392      F1408   1.357       .  S
C1393      C1394   1.409       .  A
C1394      F1397   1.357       .  S
C1395      C1398   1.402       .  A
C1395      C1402   1.401       .  A
C1398      C1399   1.398       .  A
C1398      F1403   1.358       .  S
C1399      C1400   1.406       .  A
C1399      F1405   1.358       .  S
C1400      C1401   1.405       .  A
C1401      C1402   1.395       .  A
C1401      F1404   1.358       .  S
C1402      F1406   1.358       .  S
C1409      C1410   1.404       .  A
C1409      C1414   1.392       .  A
C1409      F1427   1.359       .  S
C1410      C1411   1.401       .  A
C1410      C1415   1.466       .  S
C1411      C1412   1.396       .  A
C1411      F1416   1.358       .  S
C1412      C1413   1.407       .  A
C1412      F1428   1.358       .  S
C1413      C1414   1.404       .  A
C1414      F1417   1.358       .  S
C1415      C1418   1.400       .  A
C1415      C1422   1.400       .  A
C1418      C1419   1.392       .  A
C1418      F1423   1.358       .  S
C1419      C1420   1.409       .  A
C1419      F1425   1.358       .  S
C1420      C1421   1.414       .  A
C1421      C1422   1.394       .  A
C1421      F1424   1.359       .  S
C1422      F1426   1.358       .  S
C1429      C1430   1.404       .  A
C1429      C1434   1.395       .  A
C1429      F1447   1.358       .  S
C1430      C1431   1.405       .  A
C1430      C1435   1.473       .  S
C1431      C1432   1.396       .  A
C1431      F1436   1.358       .  S
C1432      C1433   1.404       .  A
C1432      F1448   1.358       .  S
C1433      C1434   1.404       .  A
C1434      F1437   1.358       .  S
C1435      C1438   1.404       .  A
C1435      C1442   1.404       .  A
C1438      C1439   1.395       .  A
C1438      F1443   1.358       .  S
C1439      C1440   1.406       .  A
C1439      F1445   1.358       .  S
C1440      C1441   1.407       .  A
C1441      C1442   1.397       .  A
C1441      F1444   1.358       .  S
C1442      F1446   1.358       .  S
C1449      C1450   1.405       .  A
C1449      C1454   1.401       .  A
C1449      F1467   1.357       .  S
C1450      C1451   1.408       .  A
C1450      C1455   1.484       .  S
C1451      C1452   1.402       .  A
C1451      F1456   1.358       .  S
C1452      C1453   1.406       .  A
C1452      F1468   1.358       .  S
C1453      C1454   1.406       .  A
C1454      F1457   1.358       .  S
C1455      C1458   1.405       .  A
C1455      C1462   1.402       .  A
C1458      C1459   1.403       .  A
C1458      F1463   1.358       .  S
C1459      C1460   1.413       .  A
C1459      F1465   1.357       .  S
C1460      C1461   1.417       .  A
C1461      C1462   1.400       .  A
C1461      F1464   1.358       .  S
C1462      F1466   1.358       .  S
C1469      C1470   1.404       .  A
C1469      C1474   1.397       .  A
C1469      F1487   1.358       .  S
C1470      C1471   1.405       .  A
C1470      C1475   1.477       .  S
C1471      C1472   1.400       .  A
C1471      F1476   1.358       .  S
C1472      C1473   1.405       .  A
C1472      F1488   1.358       .  S
C1473      C1474   1.405       .  A
C1474      F1477   1.358       .  S
C1475      C1478   1.403       .  A
C1475      C1482   1.404       .  A
C1478      C1479   1.398       .  A
C1478      F1483   1.358       .  S
C1479      C1480   1.410       .  A
C1479      F1485   1.358       .  S
C1480      C1481   1.409       .  A
C1481      C1482   1.400       .  A
C1481      F1484   1.358       .  S
C1482      F1486   1.358       .  S
C1489      C1490   1.406       .  A
C1489      C1494   1.399       .  A
C1489      F1507   1.358       .  S
C1490      C1491   1.406       .  A
C1490      C1495   1.481       .  S
C1491      C1492   1.398       .  A
C1491      F1496   1.358       .  S
C1492      C1493   1.406       .  A
C1492      F1508   1.358       .  S
C1493      C1494   1.405       .  A
C1494      F1497   1.358       .  S
C1495      C1498   1.403       .  A
C1495      C1502   1.404       .  A
C1498      C1499   1.398       .  A
C1498      F1503   1.358       .  S
C1499      C1500   1.414       .  A
C1499      F1505   1.358       .  S
C1500      C1501   1.412       .  A
C1501      C1502   1.399       .  A
C1501      F1504   1.358       .  S
C1502      F1506   1.358       .  S
C1509      C1510   1.404       .  A
C1509      C1514   1.404       .  A
C1509      F1527   1.358       .  S
C1510      C1511   1.402       .  A
C1510      C1515   1.483       .  S
C1511      C1512   1.398       .  A
C1511      F1516   1.358   1_554  S
C1512      C1513   1.413       .  A
C1512      F1528   1.355   1_554  S
C1513      C1514   1.415       .  A
C1514      F1517   1.358       .  S
C1515      C1518   1.405       .  A
C1515      C1522   1.404       .  A
C1518      C1519   1.401       .  A
C1518      F1523   1.358   1_545  S
C1519      C1520   1.409       .  A
C1519      F1525   1.358   1_545  S
C1520      C1521   1.409       .  A
C1521      C1522   1.400       .  A
C1521      F1524   1.358   1_554  S
C1522      F1526   1.358       .  S
C1529      C1530   1.404   1_545  A
C1529      C1534   1.400       .  A
C1529      F1547   1.358       .  S
C1530      C1531   1.403       .  A
C1530      C1535   1.476       .  S
C1531      C1532   1.398   1_554  A
C1531      F1536   1.358   1_554  S
C1532      C1533   1.408   1_566  A
C1532      F1548   1.358       .  S
C1533      C1534   1.407       .  A
C1534      F1537   1.358       .  S
C1535      C1538   1.404       .  A
C1535      C1542   1.403       .  A
C1538      C1539   1.398       .  A
C1538      F1543   1.358       .  S
C1539      C1540   1.407       .  A
C1539      F1545   1.358       .  S
C1540      C1541   1.407       .  A
C1541      C1542   1.399       .  A
C1541      F1544   1.358       .  S
C1542      F1546   1.358   1_565  S
C1549      C1550   1.402       .  A
C1549      C1554   1.395       .  A
C1549      F1567   1.358       .  S
C1550      C1551   1.402       .  A
C1550      C1555   1.468       .  S
C1551      C1552   1.398       .  A
C1551      F1556   1.358       .  S
C1552      C1553   1.407       .  A
C1552      F1568   1.358       .  S
C1553      C1554   1.406       .  A
C1554      F1557   1.358       .  S
C1555      C1558   1.398       .  A
C1555      C1562   1.401       .  A
C1558      C1559   1.393       .  A
C1558      F1563   1.358       .  S
C1559      C1560   1.415       .  A
C1559      F1565   1.358       .  S
C1560      C1561   1.413       .  A
C1561      C1562   1.399       .  A
C1561      F1564   1.358       .  S
C1562      F1566   1.358       .  S
C1569      C1570   1.406       .  A
C1569      C1574   1.396       .  A
C1569      F1587   1.358       .  S
C1570      C1571   1.406       .  A
C1570      C1575   1.480       .  S
C1571      C1572   1.399       .  A
C1571      F1576   1.358       .  S
C1572      C1573   1.406       .  A
C1572      F1588   1.358       .  S
C1573      C1574   1.406       .  A
C1574      F1577   1.358       .  S
C1575      C1578   1.405       .  A
C1575      C1582   1.402       .  A
C1578      C1579   1.398       .  A
C1578      F1583   1.358       .  S
C1579      C1580   1.412       .  A
C1579      F1585   1.358       .  S
C1580      C1581   1.414       .  A
C1581      C1582   1.395       .  A
C1581      F1584   1.358       .  S
C1582      F1586   1.358       .  S
C1589      C1590   1.401       .  A
C1589      C1594   1.396       .  A
C1589      F1607   1.358       .  S
C1590      C1591   1.402       .  A
C1590      C1595   1.464       .  S
C1591      C1592   1.396       .  A
C1591      F1596   1.358       .  S
C1592      C1593   1.407       .  A
C1592      F1608   1.358       .  S
C1593      C1594   1.405       .  A
C1594      F1597   1.357       .  S
C1595      C1598   1.399       .  A
C1595      C1602   1.402       .  A
C1598      C1599   1.393       .  A
C1598      F1603   1.358       .  S
C1599      C1600   1.410       .  A
C1599      F1605   1.359       .  S
C1600      C1601   1.406       .  A
C1601      C1602   1.397       .  A
C1601      F1604   1.358       .  S
C1602      F1606   1.357       .  S
C1609      C1610   1.404       .  A
C1609      C1614   1.393       .  A
C1609      F1627   1.358       .  S
C1610      C1611   1.409       .  A
C1610      C1615   1.479       .  S
C1611      C1612   1.399       .  A
C1611      F1616   1.358       .  S
C1612      C1613   1.404       .  A
C1612      F1628   1.358       .  S
C1613      C1614   1.404       .  A
C1614      F1617   1.358       .  S
C1615      C1618   1.406       .  A
C1615      C1622   1.402       .  A
C1618      C1619   1.398       .  A
C1618      F1623   1.358       .  S
C1619      C1620   1.410       .  A
C1619      F1625   1.358       .  S
C1620      C1621   1.414       .  A
C1621      C1622   1.395       .  A
C1621      F1624   1.358       .  S
C1622      F1626   1.358       .  S
C1629      C1630   1.403       .  A
C1629      C1634   1.394       .  A
C1629      F1647   1.358       .  S
C1630      C1631   1.405       .  A
C1630      C1635   1.475       .  S
C1631      C1632   1.399       .  A
C1631      F1636   1.358       .  S
C1632      C1633   1.406       .  A
C1632      F1648   1.358       .  S
C1633      C1634   1.408       .  A
C1634      F1637   1.358       .  S
C1635      C1638   1.406       .  A
C1635      C1642   1.405       .  A
C1638      C1639   1.396       .  A
C1638      F1643   1.358       .  S
C1639      C1640   1.403       .  A
C1639      F1645   1.358       .  S
C1640      C1641   1.405       .  A
C1641      C1642   1.397       .  A
C1641      F1644   1.358       .  S
C1642      F1646   1.358       .  S
C1649      C1650   1.406       .  A
C1649      C1654   1.394       .  A
C1649      F1667   1.358       .  S
C1650      C1651   1.406       .  A
C1650      C1655   1.476       .  S
C1651      C1652   1.398       .  A
C1651      F1656   1.358       .  S
C1652      C1653   1.404       .  A
C1652      F1668   1.358       .  S
C1653      C1654   1.399       .  A
C1654      F1657   1.358       .  S
C1655      C1658   1.402       .  A
C1655      C1662   1.403       .  A
C1658      C1659   1.394       .  A
C1658      F1663   1.358       .  S
C1659      C1660   1.412       .  A
C1659      F1665   1.358       .  S
C1660      C1661   1.414       .  A
C1661      C1662   1.398       .  A
C1661      F1664   1.358       .  S
C1662      F1666   1.358       .  S
C1669      C1670   1.404       .  A
C1669      C1674   1.397   1_455  A
C1669      F1687   1.358       .  S
C1670      C1671   1.403   1_455  A
C1670      C1675   1.476       .  S
C1671      C1672   1.398       .  A
C1671      F1676   1.358       .  S
C1672      C1673   1.410       .  A
C1672      F1688   1.358       .  S
C1673      C1674   1.410       .  A
C1674      F1677   1.358       .  S
C1675      C1678   1.403       .  A
C1675      C1682   1.403       .  A
C1678      C1679   1.399       .  A
C1678      F1683   1.358       .  S
C1679      C1680   1.409       .  A
C1679      F1685   1.357       .  S
C1680      C1681   1.410       .  A
C1681      C1682   1.396       .  A
C1681      F1684   1.358       .  S
C1682      F1686   1.358       .  S
C1689      C1690   1.406       .  A
C1689      C1694   1.401       .  A
C1689      F1707   1.358       .  S
C1690      C1691   1.404       .  A
C1690      C1695   1.482       .  S
C1691      C1692   1.398       .  A
C1691      F1696   1.358       .  S
C1692      C1693   1.411       .  A
C1692      F1708   1.358       .  S
C1693      C1694   1.408       .  A
C1694      F1697   1.358       .  S
C1695      C1698   1.402       .  A
C1695      C1702   1.404       .  A
C1698      C1699   1.397       .  A
C1698      F1703   1.358       .  S
C1699      C1700   1.414       .  A
C1699      F1705   1.358       .  S
C1700      C1701   1.415       .  A
C1701      C1702   1.403       .  A
C1701      F1704   1.358       .  S
C1702      F1706   1.358       .  S
C1709      C1710   1.406       .  A
C1709      C1714   1.399       .  A
C1709      F1727   1.358       .  S
C1710      C1711   1.402       .  A
C1710      C1715   1.480       .  S
C1711      C1712   1.395       .  A
C1711      F1716   1.358       .  S
C1712      C1713   1.413       .  A
C1712      F1728   1.358       .  S
C1713      C1714   1.410       .  A
C1714      F1717   1.357       .  S
C1715      C1718   1.408       .  A
C1715      C1722   1.403       .  A
C1718      C1719   1.402       .  A
C1718      F1723   1.358       .  S
C1719      C1720   1.407       .  A
C1719      F1725   1.358       .  S
C1720      C1721   1.408       .  A
C1721      C1722   1.395       .  A
C1721      F1724   1.358       .  S
C1722      F1726   1.358       .  S
C1729      C1730   1.405       .  A
C1729      C1734   1.394       .  A
C1729      F1747   1.358       .  S
C1730      C1731   1.406       .  A
C1730      C1735   1.474       .  S
C1731      C1732   1.398       .  A
C1731      F1736   1.358       .  S
C1732      C1733   1.405       .  A
C1732      F1748   1.358       .  S
C1733      C1734   1.401       .  A
C1734      F1737   1.358       .  S
C1735      C1738   1.402       .  A
C1735      C1742   1.404       .  A
C1738      C1739   1.393       .  A
C1738      F1743   1.358       .  S
C1739      C1740   1.408       .  A
C1739      F1745   1.358       .  S
C1740      C1741   1.410       .  A
C1741      C1742   1.399       .  A
C1741      F1744   1.358       .  S
C1742      F1746   1.358       .  S
C1749      C1750   1.401       .  A
C1749      C1754   1.394       .  A
C1749      F1767   1.358       .  S
C1750      C1751   1.402       .  A
C1750      C1755   1.471       .  S
C1751      C1752   1.398       .  A
C1751      F1756   1.358       .  S
C1752      C1753   1.412       .  A
C1752      F1768   1.359       .  S
C1753      C1754   1.408       .  A
C1754      F1757   1.358       .  S
C1755      C1758   1.402       .  A
C1755      C1762   1.401       .  A
C1758      C1759   1.397       .  A
C1758      F1763   1.358       .  S
C1759      C1760   1.411       .  A
C1759      F1765   1.358       .  S
C1760      C1761   1.410       .  A
C1761      C1762   1.397       .  A
C1761      F1764   1.358       .  S
C1762      F1766   1.358       .  S
C1769      C1770   1.401       .  A
C1769      C1774   1.396       .  A
C1769      F1787   1.358       .  S
C1770      C1771   1.404       .  A
C1770      C1775   1.472       .  S
C1771      C1772   1.397       .  A
C1771      F1776   1.358   1_565  S
C1772      C1773   1.408       .  A
C1772      F1788   1.358   1_565  S
C1773      C1774   1.410       .  A
C1774      F1777   1.358       .  S
C1775      C1778   1.402       .  A
C1775      C1782   1.403       .  A
C1778      C1779   1.396       .  A
C1778      F1783   1.358   1_565  S
C1779      C1780   1.407       .  A
C1779      F1785   1.354   1_565  S
C1780      C1781   1.408       .  A
C1781      C1782   1.397       .  A
C1781      F1784   1.358       .  S
C1782      F1786   1.358       .  S
C1789      C1790   1.405       .  A
C1789      C1794   1.402       .  A
C1789      F1807   1.358       .  S
C1790      C1791   1.404       .  A
C1790      C1795   1.488       .  S
C1791      C1792   1.399       .  A
C1791      F1796   1.358       .  S
C1792      C1793   1.415       .  A
C1792      F1808   1.358       .  S
C1793      C1794   1.415       .  A
C1794      F1797   1.358       .  S
C1795      C1798   1.406       .  A
C1795      C1802   1.407       .  A
C1798      C1799   1.397       .  A
C1798      F1803   1.358       .  S
C1799      C1800   1.409   1_655  A
C1799      F1805   1.358       .  S
C1800      C1801   1.409       .  A
C1801      C1802   1.402   1_455  A
C1801      F1804   1.358       .  S
C1802      F1806   1.358       .  S
C1809      C1810   1.406       .  A
C1809      C1814   1.403       .  A
C1809      F1827   1.358       .  S
C1810      C1811   1.403       .  A
C1810      C1815   1.479       .  S
C1811      C1812   1.397       .  A
C1811      F1816   1.358       .  S
C1812      C1813   1.406       .  A
C1812      F1828   1.358       .  S
C1813      C1814   1.408       .  A
C1814      F1817   1.358       .  S
C1815      C1818   1.401       .  A
C1815      C1822   1.404       .  A
C1818      C1819   1.399       .  A
C1818      F1823   1.358       .  S
C1819      C1820   1.415       .  A
C1819      F1825   1.358       .  S
C1820      C1821   1.411       .  A
C1821      C1822   1.400       .  A
C1821      F1824   1.358       .  S
C1822      F1826   1.358       .  S
C1829      C1830   1.402       .  A
C1829      C1834   1.395       .  A
C1829      F1847   1.358       .  S
C1830      C1831   1.403       .  A
C1830      C1835   1.475       .  S
C1831      C1832   1.401       .  A
C1831      F1836   1.358       .  S
C1832      C1833   1.410       .  A
C1832      F1848   1.358       .  S
C1833      C1834   1.408       .  A
C1834      F1837   1.358       .  S
C1835      C1838   1.403       .  A
C1835      C1842   1.403       .  A
C1838      C1839   1.396       .  A
C1838      F1843   1.358       .  S
C1839      C1840   1.405       .  A
C1839      F1845   1.358       .  S
C1840      C1841   1.409       .  A
C1841      C1842   1.401       .  A
C1841      F1844   1.358       .  S
C1842      F1846   1.358       .  S
C1849      C1850   1.403       .  A
C1849      C1854   1.397       .  A
C1849      F1867   1.358       .  S
C1850      C1851   1.404       .  A
C1850      C1855   1.476       .  S
C1851      C1852   1.395       .  A
C1851      F1856   1.358       .  S
C1852      C1853   1.408       .  A
C1852      F1868   1.358       .  S
C1853      C1854   1.410       .  A
C1854      F1857   1.358       .  S
C1855      C1858   1.403       .  A
C1855      C1862   1.400       .  A
C1858      C1859   1.399       .  A
C1858      F1863   1.358       .  S
C1859      C1860   1.414       .  A
C1859      F1865   1.358       .  S
C1860      C1861   1.414       .  A
C1861      C1862   1.393       .  A
C1861      F1864   1.358       .  S
C1862      F1866   1.358       .  S
C1869      C1870   1.402       .  A
C1869      C1874   1.394       .  A
C1869      F1887   1.358       .  S
C1870      C1871   1.401       .  A
C1870      C1875   1.472       .  S
C1871      C1872   1.394       .  A
C1871      F1876   1.358       .  S
C1872      C1873   1.414       .  A
C1872      F1888   1.358       .  S
C1873      C1874   1.412       .  A
C1874      F1877   1.358       .  S
C1875      C1878   1.404       .  A
C1875      C1882   1.404       .  A
C1878      C1879   1.397       .  A
C1878      F1883   1.358       .  S
C1879      C1880   1.406       .  A
C1879      F1885   1.357   1_565  S
C1880      C1881   1.408       .  A
C1881      C1882   1.393       .  A
C1881      F1884   1.358       .  S
C1882      F1886   1.359       .  S
C1889      C1890   1.403       .  A
C1889      C1894   1.396       .  A
C1889      F1907   1.359       .  S
C1890      C1891   1.405       .  A
C1890      C1895   1.481       .  S
C1891      C1892   1.397       .  A
C1891      F1896   1.358       .  S
C1892      C1893   1.412       .  A
C1892      F1908   1.357       .  S
C1893      C1894   1.416       .  A
C1894      F1897   1.358       .  S
C1895      C1898   1.407       .  A
C1895      C1902   1.408       .  A
C1898      C1899   1.395       .  A
C1898      F1903   1.358       .  S
C1899      C1900   1.404       .  A
C1899      F1905   1.358       .  S
C1900      C1901   1.403       .  A
C1901      C1902   1.397       .  A
C1901      F1904   1.358       .  S
C1902      F1906   1.358       .  S
C1909      C1910   1.402       .  A
C1909      C1914   1.396       .  A
C1909      F1927   1.358       .  S
C1910      C1911   1.405       .  A
C1910      C1915   1.472       .  S
C1911      C1912   1.394       .  A
C1911      F1916   1.358       .  S
C1912      C1913   1.406       .  A
C1912      F1928   1.358       .  S
C1913      C1914   1.409       .  A
C1914      F1917   1.358       .  S
C1915      C1918   1.401       .  A
C1915      C1922   1.402       .  A
C1918      C1919   1.394       .  A
C1918      F1923   1.358       .  S
C1919      C1920   1.411       .  A
C1919      F1925   1.358       .  S
C1920      C1921   1.415       .  A
C1921      C1922   1.395       .  A
C1921      F1924   1.358       .  S
C1922      F1926   1.359       .  S
C1929      C1930   1.401       .  A
C1929      C1934   1.393       .  A
C1929      F1947   1.358       .  S
C1930      C1931   1.404       .  A
C1930      C1935   1.467       .  S
C1931      C1932   1.397       .  A
C1931      F1936   1.358       .  S
C1932      C1933   1.405       .  A
C1932      F1948   1.358       .  S
C1933      C1934   1.404       .  A
C1934      F1937   1.358       .  S
C1935      C1938   1.402       .  A
C1935      C1942   1.402       .  A
C1938      C1939   1.395       .  A
C1938      F1943   1.358       .  S
C1939      C1940   1.406       .  A
C1939      F1945   1.358       .  S
C1940      C1941   1.406       .  A
C1941      C1942   1.394       .  A
C1941      F1944   1.358       .  S
C1942      F1946   1.358       .  S
C1949      C1950   1.403       .  A
C1949      C1954   1.400       .  A
C1949      F1967   1.358   1_565  S
C1950      C1951   1.403       .  A
C1950      C1955   1.477   1_565  S
C1951      C1952   1.400       .  A
C1951      F1956   1.358       .  S
C1952      C1953   1.409       .  A
C1952      F1968   1.358       .  S
C1953      C1954   1.409       .  A
C1954      F1957   1.358       .  S
C1955      C1958   1.404       .  A
C1955      C1962   1.400       .  A
C1958      C1959   1.404       .  A
C1958      F1963   1.358       .  S
C1959      C1960   1.412       .  A
C1959      F1965   1.358       .  S
C1960      C1961   1.412       .  A
C1961      C1962   1.396       .  A
C1961      F1964   1.358       .  S
C1962      F1966   1.358       .  S
C1969      C1970   1.409       .  A
C1969      C1974   1.400       .  A
C1969      F1987   1.358       .  S
C1970      C1971   1.409       .  A
C1970      C1975   1.488       .  S
C1971      C1972   1.400       .  A
C1971      F1976   1.358       .  S
C1972      C1973   1.403       .  A
C1972      F1988   1.358       .  S
C1973      C1974   1.403       .  A
C1974      F1977   1.358       .  S
C1975      C1978   1.408       .  A
C1975      C1982   1.407       .  A
C1978      C1979   1.400       .  A
C1978      F1983   1.358       .  S
C1979      C1980   1.407       .  A
C1979      F1985   1.358       .  S
C1980      C1981   1.408       .  A
C1981      C1982   1.399       .  A
C1981      F1984   1.358       .  S
C1982      F1986   1.358       .  S
C1989      C1990   1.409       .  A
C1989      C1994   1.397       .  A
C1989      F2007   1.358       .  S
C1990      C1991   1.411       .  A
C1990      C1995   1.489       .  S
C1991      C1992   1.401       .  A
C1991      F1996   1.358       .  S
C1992      C1993   1.404       .  A
C1992      F2008   1.358       .  S
C1993      C1994   1.402       .  A
C1994      F1997   1.358       .  S
C1995      C1998   1.406       .  A
C1995      C2002   1.411   1_655  A
C1998      C1999   1.396       .  A
C1998      F2003   1.358       .  S
C1999      C2000   1.410       .  A
C1999      F2005   1.358       .  S
C2000      C2001   1.406   1_655  A
C2001      C2002   1.401       .  A
C2001      F2004   1.356       .  S
C2002      F2006   1.358       .  S
C2009      C2010   1.404       .  A
C2009      C2014   1.397       .  A
C2009      F2027   1.358       .  S
C2010      C2011   1.403       .  A
C2010      C2015   1.476       .  S
C2011      C2012   1.401       .  A
C2011      F2016   1.358       .  S
C2012      C2013   1.409       .  A
C2012      F2028   1.358       .  S
C2013      C2014   1.406       .  A
C2014      F2017   1.358       .  S
C2015      C2018   1.401       .  A
C2015      C2022   1.402       .  A
C2018      C2019   1.398       .  A
C2018      F2023   1.358       .  S
C2019      C2020   1.414       .  A
C2019      F2025   1.358       .  S
C2020      C2021   1.412       .  A
C2021      C2022   1.399       .  A
C2021      F2024   1.358       .  S
C2022      F2026   1.358       .  S
C2029      C2030   1.406       .  A
C2029      C2034   1.398       .  A
C2029      F2047   1.358       .  S
C2030      C2031   1.408       .  A
C2030      C2035   1.484       .  S
C2031      C2032   1.401       .  A
C2031      F2036   1.358       .  S
C2032      C2033   1.407       .  A
C2032      F2048   1.358       .  S
C2033      C2034   1.406       .  A
C2034      F2037   1.358       .  S
C2035      C2038   1.408       .  A
C2035      C2042   1.407       .  A
C2038      C2039   1.400       .  A
C2038      F2043   1.358       .  S
C2039      C2040   1.405       .  A
C2039      F2045   1.358       .  S
C2040      C2041   1.406       .  A
C2041      C2042   1.399       .  A
C2041      F2044   1.358       .  S
C2042      F2046   1.358       .  S
C2049      C2050   1.402       .  A
C2049      C2054   1.397       .  A
C2049      F2067   1.358       .  S
C2050      C2051   1.405       .  A
C2050      C2055   1.473       .  S
C2051      C2052   1.397       .  A
C2051      F2056   1.358       .  S
C2052      C2053   1.404       .  A
C2052      F2068   1.358       .  S
C2053      C2054   1.406       .  A
C2054      F2057   1.358       .  S
C2055      C2058   1.401       .  A
C2055      C2062   1.401       .  A
C2058      C2059   1.396       .  A
C2058      F2063   1.358       .  S
C2059      C2060   1.414       .  A
C2059      F2065   1.358       .  S
C2060      C2061   1.411       .  A
C2061      C2062   1.398       .  A
C2061      F2064   1.358       .  S
C2062      F2066   1.358       .  S
C2069      C2070   1.404       .  A
C2069      C2074   1.395       .  A
C2069      F2087   1.358       .  S
C2070      C2071   1.403       .  A
C2070      C2075   1.470       .  S
C2071      C2072   1.396       .  A
C2071      F2076   1.358       .  S
C2072      C2073   1.407       .  A
C2072      F2088   1.358       .  S
C2073      C2074   1.405       .  A
C2074      F2077   1.358       .  S
C2075      C2078   1.401       .  A
C2075      C2082   1.400       .  A
C2078      C2079   1.396       .  A
C2078      F2083   1.358       .  S
C2079      C2080   1.414       .  A
C2079      F2085   1.358       .  S
C2080      C2081   1.413       .  A
C2081      C2082   1.393       .  A
C2081      F2084   1.358       .  S
C2082      F2086   1.358       .  S
C2089      C2090   1.404       .  A
C2089      C2094   1.399       .  A
C2089      F2107   1.358       .  S
C2090      C2091   1.405       .  A
C2090      C2095   1.476       .  S
C2091      C2092   1.399       .  A
C2091      F2096   1.358       .  S
C2092      C2093   1.404       .  A
C2092      F2108   1.358       .  S
C2093      C2094   1.404       .  A
C2094      F2097   1.358       .  S
C2095      C2098   1.400       .  A
C2095      C2102   1.402       .  A
C2098      C2099   1.398       .  A
C2098      F2103   1.358       .  S
C2099      C2100   1.416       .  A
C2099      F2105   1.358       .  S
C2100      C2101   1.415       .  A
C2101      C2102   1.401       .  A
C2101      F2104   1.358       .  S
C2102      F2106   1.358       .  S
C2109      C2110   1.403       .  A
C2109      C2114   1.399       .  A
C2109      F2127   1.358       .  S
C2110      C2111   1.402   1_554  A
C2110      C2115   1.475       .  S
C2111      C2112   1.397       .  A
C2111      F2116   1.358       .  S
C2112      C2113   1.410   1_556  A
C2112      F2128   1.358       .  S
C2113      C2114   1.410       .  A
C2114      F2117   1.358       .  S
C2115      C2118   1.403       .  A
C2115      C2122   1.402       .  A
C2118      C2119   1.399       .  A
C2118      F2123   1.358       .  S
C2119      C2120   1.412       .  A
C2119      F2125   1.358       .  S
C2120      C2121   1.409       .  A
C2121      C2122   1.395       .  A
C2121      F2124   1.358       .  S
C2122      F2126   1.358       .  S
C2129      C2130   1.403       .  A
C2129      C2134   1.396       .  A
C2129      F2147   1.358       .  S
C2130      C2131   1.404       .  A
C2130      C2135   1.474       .  S
C2131      C2132   1.397       .  A
C2131      F2136   1.358       .  S
C2132      C2133   1.407       .  A
C2132      F2148   1.358       .  S
C2133      C2134   1.406       .  A
C2134      F2137   1.358       .  S
C2135      C2138   1.404       .  A
C2135      C2142   1.405       .  A
C2138      C2139   1.397       .  A
C2138      F2143   1.358       .  S
C2139      C2140   1.406       .  A
C2139      F2145   1.358       .  S
C2140      C2141   1.405       .  A
C2141      C2142   1.398       .  A
C2141      F2144   1.358       .  S
C2142      F2146   1.358       .  S
C2149      C2150   1.403       .  A
C2149      C2154   1.399       .  A
C2149      F2167   1.358       .  S
C2150      C2151   1.401       .  A
C2150      C2155   1.477       .  S
C2151      C2152   1.397       .  A
C2151      F2156   1.358       .  S
C2152      C2153   1.413       .  A
C2152      F2168   1.358       .  S
C2153      C2154   1.413       .  A
C2154      F2157   1.358       .  S
C2155      C2158   1.406       .  A
C2155      C2162   1.404       .  A
C2158      C2159   1.399       .  A
C2158      F2163   1.358       .  S
C2159      C2160   1.405       .  A
C2159      F2165   1.358       .  S
C2160      C2161   1.406       .  A
C2161      C2162   1.396       .  A
C2161      F2164   1.358       .  S
C2162      F2166   1.358       .  S
C2169      C2170   1.408       .  A
C2169      C2174   1.403       .  A
C2169      F2187   1.358       .  S
C2170      C2171   1.407       .  A
C2170      C2175   1.486       .  S
C2171      C2172   1.396       .  A
C2171      F2176   1.358       .  S
C2172      C2173   1.405       .  A
C2172      F2188   1.358       .  S
C2173      C2174   1.407       .  A
C2174      F2177   1.358       .  S
C2175      C2178   1.406       .  A
C2175      C2182   1.404       .  A
C2178      C2179   1.398       .  A
C2178      F2183   1.358       .  S
C2179      C2180   1.412       .  A
C2179      F2185   1.358       .  S
C2180      C2181   1.415       .  A
C2181      C2182   1.399       .  A
C2181      F2184   1.358       .  S
C2182      F2186   1.358       .  S
C2189      C2190   1.399       .  A
C2189      C2194   1.393       .  A
C2189      F2207   1.358       .  S
C2190      C2191   1.401       .  A
C2190      C2195   1.469       .  S
C2191      C2192   1.397       .  A
C2191      F2196   1.358       .  S
C2192      C2193   1.412       .  A
C2192      F2208   1.358       .  S
C2193      C2194   1.415       .  A
C2194      F2197   1.358       .  S
C2195      C2198   1.404       .  A
C2195      C2202   1.403       .  A
C2198      C2199   1.395       .  A
C2198      F2203   1.358       .  S
C2199      C2200   1.404       .  A
C2199      F2205   1.358       .  S
C2200      C2201   1.404       .  A
C2201      C2202   1.396       .  A
C2201      F2204   1.358       .  S
C2202      F2206   1.358       .  S
C2209      C2210   1.406       .  A
C2209      C2214   1.400       .  A
C2209      F2227   1.358       .  S
C2210      C2211   1.402       .  A
C2210      C2215   1.480       .  S
C2211      C2212   1.398       .  A
C2211      F2216   1.358       .  S
C2212      C2213   1.413       .  A
C2212      F2228   1.358       .  S
C2213      C2214   1.408       .  A
C2214      F2217   1.358       .  S
C2215      C2218   1.403       .  A
C2215      C2222   1.406       .  A
C2218      C2219   1.395       .  A
C2218      F2223   1.358       .  S
C2219      C2220   1.408       .  A
C2219      F2225   1.358       .  S
C2220      C2221   1.411       .  A
C2221      C2222   1.401       .  A
C2221      F2224   1.358       .  S
C2222      F2226   1.358       .  S
C2229      C2230   1.405       .  A
C2229      C2234   1.398       .  A
C2229      F2247   1.358       .  S
C2230      C2231   1.404       .  A
C2230      C2235   1.474       .  S
C2231      C2232   1.396       .  A
C2231      F2236   1.358   1_655  S
C2232      C2233   1.403       .  A
C2232      F2248   1.358       .  S
C2233      C2234   1.404       .  A
C2234      F2237   1.358       .  S
C2235      C2238   1.403       .  A
C2235      C2242   1.403   1_655  A
C2238      C2239   1.398   1_655  A
C2238      F2243   1.358       .  S
C2239      C2240   1.407       .  A
C2239      F2245   1.358   1_455  S
C2240      C2241   1.409       .  A
C2241      C2242   1.396       .  A
C2241      F2244   1.358       .  S
C2242      F2246   1.358       .  S
C2249      C2250   1.404       .  A
C2249      C2254   1.400       .  A
C2249      F2267   1.358       .  S
C2250      C2251   1.403       .  A
C2250      C2255   1.477       .  S
C2251      C2252   1.396       .  A
C2251      F2256   1.358       .  S
C2252      C2253   1.409       .  A
C2252      F2268   1.358       .  S
C2253      C2254   1.410       .  A
C2254      F2257   1.358       .  S
C2255      C2258   1.402       .  A
C2255      C2262   1.404       .  A
C2258      C2259   1.394       .  A
C2258      F2263   1.358       .  S
C2259      C2260   1.410       .  A
C2259      F2265   1.358       .  S
C2260      C2261   1.411       .  A
C2261      C2262   1.401       .  A
C2261      F2264   1.358       .  S
C2262      F2266   1.358       .  S
C2269      C2270   1.407       .  A
C2269      C2274   1.401       .  A
C2269      F2287   1.358       .  S
C2270      C2271   1.407       .  A
C2270      C2275   1.489       .  S
C2271      C2272   1.401       .  A
C2271      F2276   1.358       .  S
C2272      C2273   1.407       .  A
C2272      F2288   1.358       .  S
C2273      C2274   1.407       .  A
C2274      F2277   1.358       .  S
C2275      C2278   1.406       .  A
C2275      C2282   1.405       .  A
C2278      C2279   1.402       .  A
C2278      F2283   1.358       .  S
C2279      C2280   1.412       .  A
C2279      F2285   1.357       .  S
C2280      C2281   1.415       .  A
C2281      C2282   1.402       .  A
C2281      F2284   1.358       .  S
C2282      F2286   1.358       .  S
C2289      C2290   1.405       .  A
C2289      C2294   1.398       .  A
C2289      F2307   1.358       .  S
C2290      C2291   1.401       .  A
C2290      C2295   1.472       .  S
C2291      C2292   1.393       .  A
C2291      F2296   1.358       .  S
C2292      C2293   1.409       .  A
C2292      F2308   1.358       .  S
C2293      C2294   1.406       .  A
C2294      F2297   1.358       .  S
C2295      C2298   1.401       .  A
C2295      C2302   1.405       .  A
C2298      C2299   1.393       .  A
C2298      F2303   1.358       .  S
C2299      C2300   1.412       .  A
C2299      F2305   1.359       .  S
C2300      C2301   1.407       .  A
C2301      C2302   1.396       .  A
C2301      F2304   1.358       .  S
C2302      F2306   1.358       .  S
C2309      C2310   1.406       .  A
C2309      C2314   1.404       .  A
C2309      F2327   1.358       .  S
C2310      C2311   1.404       .  A
C2310      C2315   1.482   1_565  S
C2311      C2312   1.398       .  A
C2311      F2316   1.358   1_565  S
C2312      C2313   1.405       .  A
C2312      F2328   1.358       .  S
C2313      C2314   1.408       .  A
C2314      F2317   1.358       .  S
C2315      C2318   1.403       .  A
C2315      C2322   1.401       .  A
C2318      C2319   1.402       .  A
C2318      F2323   1.358       .  S
C2319      C2320   1.413       .  A
C2319      F2325   1.357       .  S
C2320      C2321   1.418       .  A
C2321      C2322   1.401       .  A
C2321      F2324   1.357       .  S
C2322      F2326   1.358       .  S
C2329      C2330   1.402       .  A
C2329      C2334   1.397       .  A
C2329      F2347   1.358       .  S
C2330      C2331   1.404       .  A
C2330      C2335   1.473       .  S
C2331      C2332   1.399       .  A
C2331      F2336   1.358       .  S
C2332      C2333   1.408       .  A
C2332      F2348   1.358       .  S
C2333      C2334   1.407       .  A
C2334      F2337   1.358       .  S
C2335      C2338   1.402       .  A
C2335      C2342   1.404       .  A
C2338      C2339   1.398       .  A
C2338      F2343   1.358       .  S
C2339      C2340   1.410       .  A
C2339      F2345   1.358       .  S
C2340      C2341   1.405       .  A
C2341      C2342   1.397       .  A
C2341      F2344   1.357       .  S
C2342      F2346   1.358       .  S
C2349      C2350   1.403       .  A
C2349      C2354   1.399       .  A
C2349      F2367   1.358       .  S
C2350      C2351   1.402       .  A
C2350      C2355   1.468       .  S
C2351      C2352   1.393       .  A
C2351      F2356   1.358       .  S
C2352      C2353   1.404       .  A
C2352      F2368   1.358       .  S
C2353      C2354   1.405       .  A
C2354      F2357   1.358       .  S
C2355      C2358   1.401       .  A
C2355      C2362   1.400       .  A
C2358      C2359   1.397       .  A
C2358      F2363   1.358       .  S
C2359      C2360   1.410       .  A
C2359      F2365   1.358       .  S
C2360      C2361   1.413       .  A
C2361      C2362   1.395       .  A
C2361      F2364   1.358       .  S
C2362      F2366   1.358       .  S
C2369      C2370   1.405   1_455  A
C2369      C2374   1.399       .  A
C2369      F2387   1.358       .  S
C2370      C2371   1.403       .  A
C2370      C2375   1.476       .  S
C2371      C2372   1.397       .  A
C2371      F2376   1.358       .  S
C2372      C2373   1.407       .  A
C2372      F2388   1.358   1_545  S
C2373      C2374   1.408   1_655  A
C2374      F2377   1.358       .  S
C2375      C2378   1.404       .  A
C2375      C2382   1.406       .  A
C2378      C2379   1.397       .  A
C2378      F2383   1.357       .  S
C2379      C2380   1.403       .  A
C2379      F2385   1.358       .  S
C2380      C2381   1.404       .  A
C2381      C2382   1.400       .  A
C2381      F2384   1.358   1_655  S
C2382      F2386   1.358   1_655  S
C2389      C2390   1.403       .  A
C2389      C2394   1.399       .  A
C2389      F2407   1.358       .  S
C2390      C2391   1.404       .  A
C2390      C2395   1.483       .  S
C2391      C2392   1.400       .  A
C2391      F2396   1.358       .  S
C2392      C2393   1.415       .  A
C2392      F2408   1.358       .  S
C2393      C2394   1.414       .  A
C2394      F2397   1.358       .  S
C2395      C2398   1.406       .  A
C2395      C2402   1.407       .  A
C2398      C2399   1.398       .  A
C2398      F2403   1.358       .  S
C2399      C2400   1.406       .  A
C2399      F2405   1.358       .  S
C2400      C2401   1.404       .  A
C2401      C2402   1.401       .  A
C2401      F2404   1.357   1_565  S
C2402      F2406   1.357       .  S
C2409      C2410   1.405       .  A
C2409      C2414   1.398       .  A
C2409      F2427   1.358       .  S
C2410      C2411   1.409       .  A
C2410      C2415   1.487       .  S
C2411      C2412   1.402       .  A
C2411      F2416   1.358       .  S
C2412      C2413   1.406       .  A
C2412      F2428   1.358       .  S
C2413      C2414   1.408       .  A
C2414      F2417   1.358       .  S
C2415      C2418   1.408       .  A
C2415      C2422   1.402       .  A
C2418      C2419   1.403       .  A
C2418      F2423   1.358       .  S
C2419      C2420   1.411       .  A
C2419      F2425   1.358       .  S
C2420      C2421   1.414       .  A
C2421      C2422   1.397       .  A
C2421      F2424   1.356       .  S
C2422      F2426   1.358       .  S
C2429      C2430   1.404       .  A
C2429      C2434   1.394       .  A
C2429      F2447   1.358       .  S
C2430      C2431   1.405       .  A
C2430      C2435   1.476       .  S
C2431      C2432   1.401       .  A
C2431      F2436   1.358       .  S
C2432      C2433   1.407       .  A
C2432      F2448   1.358       .  S
C2433      C2434   1.403       .  A
C2434      F2437   1.358       .  S
C2435      C2438   1.404       .  A
C2435      C2442   1.403       .  A
C2438      C2439   1.401       .  A
C2438      F2443   1.358       .  S
C2439      C2440   1.410       .  A
C2439      F2445   1.358       .  S
C2440      C2441   1.407       .  A
C2441      C2442   1.394       .  A
C2441      F2444   1.358       .  S
C2442      F2446   1.358       .  S
