geometry optimzed in LAMMPS
_audit_creation_date              2020-11-30 
_audit_creation_method            'lammps2cif' 
_symmetry_space_group_name_H-M    'P1' 
_symmetry_Int_Tables_number       1 
_symmetry_cell_setting            triclinic 
loop_ 
_symmetry_equiv_pos_as_xyz 
  x,y,z 
_cell_length_a                    37.61414166 
_cell_length_b                    37.72692142503715 
_cell_length_c                    37.923089876405086 
_cell_angle_alpha                 89.64759438430546 
_cell_angle_beta                  89.77989847671624 
_cell_angle_gamma                 89.27464707584068 
loop_ 
_atom_site_label 
_atom_site_type_symbol 
_atom_site_fract_x 
_atom_site_fract_y 
_atom_site_fract_z 
_atom_site_charge 
Zn1        Zn  0.46956040  0.47475462  0.96282874     1.49700
Zn2        Zn  0.53023076  0.53604428  0.96349688     1.49400
Zn3        Zn  0.46909148  0.53412909  0.02402212     1.49100
Zn4        Zn  0.53062204  0.47222267  0.02225844     1.49500
O5          O  0.50005434  0.50443148  0.99304387    -1.83300
O6          O  0.47876736  0.48595232  0.91087888    -0.74000
O7          O  0.51975563  0.58918923  0.97533966    -0.73800
O8          O  0.41634319  0.52445669  0.01510182    -0.73300
O9          O  0.52021444  0.52749832  0.91020985    -0.74000
O10         O  0.41653616  0.48364617  0.97315559    -0.73600
O11         O  0.47761605  0.58746978  0.01650946    -0.74200
O12         O  0.52032739  0.48000280  0.07463105    -0.73500
O13         O  0.58356264  0.52509894  0.97357079    -0.74300
O14         O  0.47889692  0.52253776  0.07581465    -0.73700
O15         O  0.58358914  0.48183616  0.01368401    -0.74200
O16         O  0.52173342  0.41956649  0.01162656    -0.74100
O17         O  0.47985013  0.42164905  0.97059536    -0.73900
C18         C  0.49917561  0.50683844  0.89383118     0.77900
C19         C  0.49848340  0.60520815  0.99664666     0.78400
C20         C  0.39961443  0.50386910  0.99449725     0.77400
C21         C  0.49946576  0.50061976  0.09182118     0.77800
C22         C  0.60044660  0.50340714  0.99382734     0.78900
C23         C  0.50085531  0.40379746  0.99052745     0.77900
Zn24       Zn  0.53162316  0.96091115  0.52860079     1.49700
Zn25       Zn  0.53262712  0.02376823  0.46857570     1.49400
Zn26       Zn  0.47146110  0.96427120  0.46596853     1.49100
Zn27       Zn  0.47133621  0.02227219  0.52933981     1.49500
O28         O  0.50178896  0.99265365  0.49804794    -1.83300
O29         O  0.58457913  0.97100342  0.52004246    -0.74000
O30         O  0.52460180  0.01636350  0.41513588    -0.73800
O31         O  0.48153655  0.91090226  0.47378583    -0.73300
O32         O  0.58528475  0.01402719  0.47968323    -0.74000
O33         O  0.52202807  0.90865649  0.51642105    -0.73600
O34         O  0.48172625  0.97648963  0.41326894    -0.74200
O35         O  0.41865152  0.01284568  0.52025521    -0.73500
O36         O  0.52221502  0.07611050  0.47925096    -0.74300
O37         O  0.41809182  0.97348635  0.47687380    -0.73700
O38         O  0.48037748  0.07518817  0.52077233    -0.74200
O39         O  0.48094672  0.01139136  0.58172350    -0.74100
O40         O  0.52180078  0.96847894  0.58215741    -0.73900
C41         C  0.60172290  0.99263693  0.50043002     0.77900
C42         C  0.50344578  0.99714633  0.39737830     0.78400
C43         C  0.50181653  0.89300471  0.49448328     0.77400
C44         C  0.40153009  0.99312087  0.49912906     0.77800
C45         C  0.50116512  0.09239805  0.50035405     0.78900
C46         C  0.50106072  0.98978574  0.59876544     0.77900
Zn47       Zn  0.02873329  0.52108693  0.52833477     1.49700
Zn48       Zn  0.02642370  0.46481271  0.46401384     1.49400
Zn49       Zn  0.96594763  0.46351725  0.52547578     1.49100
Zn50       Zn  0.96757434  0.52824102  0.46864984     1.49500
O51         O  0.99714269  0.49432913  0.49655925    -1.83300
O52         O  0.08118320  0.51073512  0.51736627    -0.74000
O53         O  0.01672667  0.41178140  0.47195085    -0.73800
O54         O  0.97401786  0.47184770  0.57846836    -0.73300
O55         O  0.07965095  0.47299541  0.47245905    -0.74000
O56         O  0.01934375  0.50917610  0.57998030    -0.73600
O57         O  0.97604148  0.41095387  0.51483142    -0.74200
O58         O  0.91463136  0.51956101  0.47701086    -0.73500
O59         O  0.01610834  0.47779458  0.41232972    -0.74300
O60         O  0.91351044  0.47427431  0.51497716    -0.73700
O61         O  0.97774179  0.52314006  0.41568144    -0.74200
O62         O  0.97742042  0.57946721  0.48265791    -0.74100
O63         O  0.01972311  0.57426211  0.52334271    -0.73900
C64         C  0.09700944  0.49150807  0.49443735     0.77900
C65         C  0.99650458  0.39479913  0.49308991     0.78400
C66         C  0.99633455  0.49016711  0.59567510     0.77400
C67         C  0.89751504  0.49730336  0.49576242     0.77800
C68         C  0.99698956  0.50181482  0.39758161     0.78900
C69         C  0.99869171  0.59325739  0.50465353     0.77900
Zn70       Zn  0.02893227  0.97913388  0.97298070     1.49700
Zn71       Zn  0.96672496  0.97348710  0.03281762     1.49400
Zn72       Zn  0.02901498  0.03314557  0.03858563     1.49100
Zn73       Zn  0.96700609  0.04031970  0.97853458     1.49500
O74         O  0.99779695  0.00657602  0.00582159    -1.83300
O75         O  0.02100056  0.92597042  0.97884121    -0.74000
O76         O  0.97518112  0.97944501  0.08653576    -0.73800
O77         O  0.08240274  0.02213958  0.02943750    -0.73300
O78         O  0.97825990  0.92169822  0.01941993    -0.74000
O79         O  0.08214745  0.98832596  0.98159194    -0.73600
O80         O  0.01747452  0.02019114  0.09008452    -0.74200
O81         O  0.97888416  0.09220164  0.99129530    -0.73500
O82         O  0.91340958  0.98273884  0.02168150    -0.74300
O83         O  0.02152384  0.08698713  0.03176966    -0.73700
O84         O  0.91356639  0.03096990  0.98755423    -0.74200
O85         O  0.97519934  0.03340880  0.92515496    -0.74100
O86         O  0.01725433  0.99141909  0.92180297    -0.73900
C87         C  0.00018155  0.90735548  0.99780183     0.77900
C88         C  0.99593909  0.99868552  0.10479927     0.78400
C89         C  0.09901995  0.00495209  0.00539572     0.77400
C90         C  0.00113626  0.10615619  0.01239112     0.77800
C91         C  0.89674538  0.00662516  0.00397989     0.78900
C92         C  0.99549908  0.01301090  0.90705066     0.77900
C93         C  0.69771894  0.48085329  0.01770023     0.03900
C94         C  0.71542757  0.50518772  0.99642683    -0.12200
C95         C  0.69692729  0.52814836  0.97404253     0.01400
C96         C  0.65956972  0.52711626  0.97269741    -0.10700
C97         C  0.64046498  0.50343872  0.99451883     0.03900
C98         C  0.66007159  0.48031991  0.01723665    -0.10200
H99         H  0.74423704  0.50636847  0.99732077     0.09500
H100        H  0.64557134  0.54507273  0.95501740     0.07000
H101        H  0.64628862  0.46197661  0.03438049     0.06900
C102        C  0.30324657  0.52252684  0.02260142     0.03900
C103        C  0.28491354  0.50051165  0.99958993    -0.12200
C104        C  0.30306346  0.47957203  0.97495986     0.01400
C105        C  0.34043683  0.48109942  0.97283437    -0.10700
C106        C  0.35975864  0.50316796  0.99572568     0.03900
C107        C  0.34063110  0.52406639  0.02038589    -0.10200
H108        H  0.25609851  0.49974097  0.00073113     0.09500
H109        H  0.35431898  0.46466369  0.95379537     0.07000
H110        H  0.35469871  0.54123389  0.03819801     0.06900
C111        C  0.02040348  0.53328673  0.30505645     0.03900
C112        C  0.02000060  0.52998216  0.34203876    -0.12200
C113        C  0.99746477  0.50530105  0.35857542     0.01400
C114        C  0.97562335  0.48389160  0.33757464    -0.10700
C115        C  0.97648028  0.48688105  0.30039812     0.03900
C116        C  0.99876822  0.51176948  0.28474124    -0.10200
H117        H  0.03705689  0.54650186  0.35779223     0.09500
H118        H  0.95813282  0.46494922  0.35011415     0.07000
H119        H  0.00009291  0.51383564  0.25623719     0.06900
C120        C  0.98735409  0.20445234  0.03523669     0.03900
C121        C  0.98320675  0.16710403  0.03503873    -0.12200
C122        C  0.00482651  0.14546490  0.01310456     0.01400
C123        C  0.03039869  0.16162913  0.99126884    -0.10700
C124        C  0.03450102  0.19864601  0.99137876     0.03900
C125        C  0.01278089  0.21954532  0.01296657    -0.10200
H126        H  0.96327572  0.15500152  0.05171841     0.09500
H127        H  0.04690519  0.14550341  0.97405465     0.07000
H128        H  0.01499061  0.24817123  0.01145584     0.06900
C129        C  0.97122271  0.51241734  0.69031919     0.03900
C130        C  0.97184113  0.51251856  0.65315697    -0.12200
C131        C  0.99541051  0.48977893  0.63474954     0.01400
C132        C  0.01887272  0.46757051  0.65393753    -0.10700
C133        C  0.01790675  0.46728370  0.69105144     0.03900
C134        C  0.99392874  0.48941101  0.70877587    -0.10200
H135        H  0.95424828  0.53027245  0.63868791     0.09500
H136        H  0.03758609  0.45050231  0.64012496     0.07000
H137        H  0.99376703  0.48952110  0.73738055     0.06900
Zn138      Zn  0.18893438  0.31566442  0.87667016     1.49700
Zn139      Zn  0.19736929  0.29744363  0.80258520     1.49400
Zn140      Zn  0.12367540  0.31265249  0.82012545     1.49100
Zn141      Zn  0.18399682  0.37453687  0.81382423     1.49500
O142        O  0.17115563  0.32803178  0.83044876    -1.83300
O143        O  0.22954720  0.27857155  0.87374363    -0.74000
O144        O  0.17302365  0.28424196  0.75922586    -0.73800
O145        O  0.10260935  0.29411923  0.86569832    -0.73300
O146        O  0.20577691  0.25284513  0.82783490    -0.74000
O147        O  0.14830907  0.29271274  0.90336500    -0.73600
O148        O  0.12343192  0.26985459  0.78654131    -0.74200
O149        O  0.13971769  0.39610270  0.79114994    -0.73500
O150        O  0.24314027  0.31823865  0.78960422    -0.74300
O151        O  0.09858388  0.35396371  0.79548675    -0.73700
O152        O  0.22293975  0.37188060  0.77575063    -0.74200
O153        O  0.20544267  0.40129216  0.85527252    -0.74100
O154        O  0.20917518  0.36026763  0.89794931    -0.73900
C155        C  0.22900665  0.25322172  0.85175305     0.77900
C156        C  0.14613760  0.26462920  0.76213339     0.78400
C157        C  0.11637097  0.28486606  0.89521758     0.77400
C158        C  0.10857974  0.38447311  0.78456389     0.77800
C159        C  0.24609146  0.34714088  0.77266735     0.78900
C160        C  0.21539065  0.39146351  0.88613534     0.77900
C161        C  0.03108137  0.81270437  0.01446511     0.03900
C162        C  0.00917038  0.79408547  0.99173084    -0.12200
C163        C  0.98398931  0.81156421  0.97073783     0.01400
C164        C  0.98084576  0.84888368  0.97237849    -0.10700
C165        C  0.00265953  0.86816235  0.99553450     0.03900
C166        C  0.02760359  0.84977985  0.01660747    -0.10200
H167        H  0.01137627  0.76539392  0.99075041     0.09500
H168        H  0.96140117  0.86268369  0.95616614     0.07000
H169        H  0.04431225  0.86426835  0.03455709     0.06900
Zn170      Zn  0.81343460  0.69963194  0.80096722     1.49700
Zn171      Zn  0.82235306  0.62493207  0.81749974     1.49400
Zn172      Zn  0.88834955  0.68028053  0.81479183     1.49100
Zn173      Zn  0.82835628  0.68485379  0.87690080     1.49500
O174        O  0.84054958  0.67027677  0.82992542    -1.83300
O175        O  0.80225029  0.67682745  0.75560826    -0.74000
O176        O  0.86233698  0.59778688  0.79379889    -0.73800
O177        O  0.88831678  0.71546606  0.77357747    -0.73300
O178        O  0.78166290  0.62934645  0.78232428    -0.74000
O179        O  0.83881639  0.74318022  0.78942006    -0.73600
O180        O  0.90865300  0.63461423  0.79397739    -0.74200
O181        O  0.87214823  0.70527065  0.89894457    -0.73500
O182        O  0.80046930  0.60272518  0.86040248    -0.74300
O183        O  0.91332822  0.70448658  0.85609769    -0.73700
O184        O  0.80394281  0.64389429  0.90220151    -0.74200
O185        O  0.79186986  0.72493921  0.87634016    -0.74100
O186        O  0.76838412  0.71244763  0.82453040    -0.73900
C187        C  0.78083803  0.65129874  0.75679561     0.77900
C188        C  0.89428977  0.60532550  0.78518829     0.78400
C189        C  0.86586365  0.74061020  0.76962848     0.77400
C190        C  0.90281515  0.71352998  0.88703131     0.77800
C191        C  0.79295029  0.61394568  0.89127731     0.78900
C192        C  0.76731051  0.72868358  0.85366293     0.77900
Zn193      Zn  0.85744587  0.36637264  0.14402957     1.49700
Zn194      Zn  0.83787372  0.34117220  0.22454607     1.49400
Zn195      Zn  0.77706945  0.34838305  0.16959286     1.49100
Zn196      Zn  0.83457887  0.28676511  0.16451891     1.49500
O197        O  0.82734375  0.33637317  0.17483397    -1.83300
O198        O  0.88806436  0.39796038  0.17767774    -0.74000
O199        O  0.79474376  0.35073058  0.25345507    -0.73800
O200        O  0.77016756  0.38598736  0.13494458    -0.73300
O201        O  0.87212895  0.37831065  0.23106770    -0.74000
O202        O  0.82333056  0.39801375  0.11200757    -0.73600
O203        O  0.75245642  0.36262796  0.21451522    -0.74200
O204        O  0.79076269  0.26469550  0.14744152    -0.73500
O205        O  0.85631212  0.29785372  0.24833240    -0.74300
O206        O  0.74949653  0.30690918  0.15286999    -0.73700
O207        O  0.84727587  0.25785366  0.20700753    -0.74200
O208        O  0.87106368  0.27946043  0.12882734    -0.74100
O209        O  0.89046606  0.33273451  0.11286782    -0.73900
C210        C  0.89035729  0.39852741  0.21151407     0.77900
C211        C  0.76278053  0.35853156  0.24609351     0.78400
C212        C  0.78940721  0.40281291  0.11327656     0.77400
C213        C  0.75864482  0.27516227  0.14615945     0.77800
C214        C  0.85444635  0.26592402  0.23859361     0.78900
C215        C  0.89121620  0.29873528  0.11028663     0.77900
Zn216      Zn  0.18293367  0.62839406  0.18312924     1.49700
Zn217      Zn  0.12176072  0.69120375  0.18038575     1.49400
Zn218      Zn  0.19522368  0.70558081  0.19610560     1.49100
Zn219      Zn  0.18634808  0.68827550  0.12282440     1.49500
O220        O  0.16906253  0.67521971  0.16868981    -1.83300
O221        O  0.13951979  0.60704669  0.20657049    -0.74000
O222        O  0.12096089  0.73216624  0.21618644    -0.73800
O223        O  0.24184233  0.68420733  0.20785163    -0.73300
O224        O  0.09749790  0.64955740  0.20371817    -0.74000
O225        O  0.22211159  0.63037240  0.22015912    -0.73600
O226        O  0.17217792  0.71759694  0.24061423    -0.74200
O227        O  0.22731581  0.72284814  0.12737485    -0.73500
O228        O  0.10031037  0.71177624  0.13593213    -0.74300
O229        O  0.20071964  0.75085456  0.17076951    -0.73700
O230        O  0.14572132  0.71334667  0.09753184    -0.74200
O231        O  0.20715070  0.64491689  0.09939904    -0.74100
O232        O  0.20453307  0.60243463  0.14059507    -0.73900
C233        C  0.10831120  0.61889425  0.21399450     0.77900
C234        C  0.14418588  0.73644879  0.24001142     0.78400
C235        C  0.24494055  0.65470736  0.22392747     0.77400
C236        C  0.22530255  0.74907596  0.14817160     0.77800
C237        C  0.11382849  0.72157438  0.10648834     0.78900
C238        C  0.21433329  0.61347356  0.11007694     0.77900
C239        C  0.52113795  0.30571136  0.01111783     0.03900
C240        C  0.52212092  0.34313090  0.01220454    -0.12200
C241        C  0.50076644  0.36400284  0.98910625     0.01400
C242        C  0.47879467  0.34639196  0.96475048    -0.10700
C243        C  0.47801950  0.30912688  0.96376267     0.03900
C244        C  0.49930408  0.28928254  0.98672023    -0.10200
H245        H  0.53934410  0.35581354  0.03101101     0.09500
H246        H  0.46205016  0.36146248  0.94679243     0.07000
H247        H  0.49829942  0.26055972  0.98605414     0.06900
C248        C  0.47487954  0.70118085  0.02411644     0.03900
C249        C  0.47399804  0.66368634  0.02123398    -0.12200
C250        C  0.49819935  0.64517614  0.99873726     0.01400
C251        C  0.52246898  0.66533809  0.97850055    -0.10700
C252        C  0.52281636  0.70261023  0.98101894     0.03900
C253        C  0.49966402  0.71976331  0.00408142    -0.10200
H254        H  0.45467175  0.64905677  0.03653574     0.09500
H255        H  0.54101674  0.65225127  0.96078289     0.07000
H256        H  0.50140559  0.74829559  0.00668764     0.06900
C257        C  0.52731517  0.02356512  0.30176042     0.03900
C258        C  0.52706337  0.02230809  0.33908711    -0.12200
C259        C  0.50403027  0.99890775  0.35753890     0.01400
C260        C  0.48130006  0.97719440  0.33742738    -0.10700
C261        C  0.48101239  0.97920549  0.30016200     0.03900
C262        C  0.50381460  0.00255173  0.28313512    -0.10200
H263        H  0.54481067  0.03926010  0.35351186     0.09500
H264        H  0.46373307  0.95882143  0.35065945     0.07000
H265        H  0.50282404  0.00497349  0.25463354     0.06900
C266        C  0.19655507  0.98215158  0.02564026     0.03900
C267        C  0.15890627  0.98277118  0.02747038    -0.12200
C268        C  0.13873333  0.00488534  0.00453210     0.01400
C269        C  0.15677208  0.02657424  0.97999159    -0.10700
C270        C  0.19424055  0.02660679  0.97872186     0.03900
C271        C  0.21348582  0.00489788  0.00191034    -0.10200
H272        H  0.14539815  0.96570591  0.04610712     0.09500
H273        H  0.14173326  0.04325692  0.96191843     0.07000
H274        H  0.24230243  0.00582479  0.00146317     0.06900
C275        C  0.79928071  0.02987610  0.02214229     0.03900
C276        C  0.78222990  0.00638043  0.99999478    -0.12200
C277        C  0.80117142  0.98201491  0.97955191     0.01400
C278        C  0.83886822  0.98178345  0.98101161    -0.10700
C279        C  0.85699125  0.00625160  0.00257793     0.03900
C280        C  0.83676500  0.03041432  0.02302414    -0.10200
H281        H  0.75344344  0.00735302  0.99856507     0.09500
H282        H  0.85399930  0.96279193  0.96553526     0.07000
H283        H  0.85006460  0.04897510  0.04004360     0.06900
Zn284      Zn  0.66543957  0.77735677  0.83945534     1.49700
Zn285      Zn  0.72560604  0.82878268  0.84745940     1.49400
Zn286      Zn  0.67340623  0.83659759  0.78447842     1.49100
Zn287      Zn  0.64557356  0.85829712  0.86162869     1.49500
O288        O  0.67630894  0.82665387  0.83395759    -1.83300
O289        O  0.70931855  0.74855101  0.84398729    -0.74000
O290        O  0.75578904  0.83633606  0.80516817    -0.73800
O291        O  0.66355140  0.79228422  0.75813876    -0.73300
O292        O  0.74600136  0.78499213  0.87038586    -0.74000
O293        O  0.64298259  0.75484551  0.79839843    -0.73600
O294        O  0.71824793  0.85640696  0.76443339    -0.74200
O295        O  0.61357353  0.88824302  0.82582759    -0.73500
O296        O  0.73301067  0.86885150  0.87807266    -0.74300
O297        O  0.63436818  0.86913445  0.77417062    -0.73700
O298        O  0.67936780  0.89077345  0.89177317    -0.74200
O299        O  0.61448397  0.82490148  0.89359462    -0.74100
O300        O  0.63492759  0.77069355  0.88000160    -0.73900
C301        C  0.73901234  0.75475856  0.85804210     0.77900
C302        C  0.74955014  0.84909426  0.77475711     0.78400
C303        C  0.65062483  0.76249124  0.76676791     0.77400
C304        C  0.61283131  0.88801064  0.79187735     0.77800
C305        C  0.71351680  0.89111649  0.89412167     0.78900
C306        C  0.61481215  0.79100762  0.89781664     0.77900
C307        C  0.52198591  0.96966607  0.69678797     0.03900
C308        C  0.52373211  0.96891950  0.65933940    -0.12200
C309        C  0.49986758  0.98978323  0.63856185     0.01400
C310        C  0.47450775  0.01138570  0.65626132    -0.10700
C311        C  0.47270142  0.01194090  0.69333800     0.03900
C312        C  0.49619174  0.99096989  0.71294296    -0.10200
H313        H  0.54374683  0.95255006  0.64655212     0.09500
H314        H  0.45606521  0.02783683  0.64135092     0.07000
H315        H  0.49448654  0.99152362  0.74148503     0.06900
Zn316      Zn  0.37954758  0.17729877  0.81135848     1.49700
Zn317      Zn  0.31883550  0.18277525  0.87349619     1.49400
Zn318      Zn  0.30602877  0.19723856  0.79739629     1.49100
Zn319      Zn  0.31475556  0.12096840  0.81407302     1.49500
O320        O  0.33172021  0.16721712  0.82667623    -1.83300
O321        O  0.40378320  0.20235191  0.85192038    -0.74000
O322        O  0.28082105  0.22228221  0.87293348    -0.73800
O323        O  0.33221275  0.24013511  0.78486794    -0.73300
O324        O  0.36290734  0.20429070  0.89486440    -0.74000
O325        O  0.38022826  0.21059246  0.76845484    -0.73600
O326        O  0.26095474  0.21187636  0.81922070    -0.74200
O327        O  0.27547869  0.12447860  0.77673104    -0.73500
O328        O  0.29603277  0.14099238  0.89920630    -0.74300
O329        O  0.29552376  0.17378918  0.75283108    -0.73700
O330        O  0.29279341  0.09912497  0.85780067    -0.74200
O331        O  0.35615656  0.09387964  0.79198760    -0.74100
O332        O  0.40138819  0.13195071  0.79286139    -0.73900
C333        C  0.39358930  0.21229193  0.88261267     0.77900
C334        C  0.25790376  0.22718414  0.84874655     0.78400
C335        C  0.35836082  0.23614524  0.76415323     0.77400
C336        C  0.27455172  0.14786909  0.75240272     0.77800
C337        C  0.28607161  0.11040263  0.88889725     0.78900
C338        C  0.38814552  0.10218361  0.78422946     0.77900
Zn339      Zn  0.33004900  0.78183195  0.16995019     1.49700
Zn340      Zn  0.33915789  0.83655402  0.22789346     1.49400
Zn341      Zn  0.35540829  0.86026102  0.14690350     1.49100
Zn342      Zn  0.27638730  0.84587979  0.17687677     1.49500
O343        O  0.32597036  0.83186343  0.17909941    -1.83300
O344        O  0.34019774  0.75446037  0.21436299    -0.74000
O345        O  0.36944235  0.87738425  0.23338864    -0.73800
O346        O  0.38570489  0.82435179  0.11563909    -0.73300
O347        O  0.36390214  0.79478729  0.24906464    -0.74000
O348        O  0.36799354  0.77206537  0.13638422    -0.73600
O349        O  0.38752603  0.89196160  0.17914502    -0.74200
O350        O  0.26877931  0.88325882  0.14199089    -0.73500
O351        O  0.29655372  0.84104031  0.25874480    -0.74300
O352        O  0.32099636  0.89283835  0.11604482    -0.73700
O353        O  0.25500324  0.86171979  0.22262907    -0.74200
O354        O  0.24701324  0.80490526  0.16255904    -0.74100
O355        O  0.28582731  0.76199869  0.14970289    -0.73900
C356        C  0.35494816  0.76317762  0.24306170     0.77900
C357        C  0.38832907  0.89597708  0.21280820     0.78400
C358        C  0.38725221  0.79020495  0.11581357     0.77400
C359        C  0.28742046  0.89919990  0.11914577     0.77800
C360        C  0.26521534  0.85230478  0.25312021     0.78900
C361        C  0.25419273  0.77379165  0.15187033     0.77900
Zn362      Zn  0.65739438  0.17316103  0.21789481     1.49700
Zn363      Zn  0.65624514  0.23041821  0.15797480     1.49400
Zn364      Zn  0.71566561  0.17264761  0.15916546     1.49100
Zn365      Zn  0.63669327  0.14808923  0.13960131     1.49500
O366        O  0.66563334  0.18049322  0.16807075    -1.83300
O367        O  0.64395736  0.21734389  0.24304218    -0.74000
O368        O  0.69891693  0.25765541  0.14299780    -0.73800
O369        O  0.74188541  0.15399051  0.20047738    -0.73300
O370        O  0.64185181  0.25770976  0.20032845    -0.74000
O371        O  0.70071506  0.15525636  0.24244701    -0.73600
O372        O  0.74098478  0.21646022  0.14833349    -0.74200
O373        O  0.67151952  0.11626738  0.10929638    -0.73500
O374        O  0.61950691  0.23518243  0.12226175    -0.74300
O375        O  0.72397425  0.14028475  0.12089436    -0.73700
O376        O  0.60486101  0.18027399  0.10638569    -0.74200
O377        O  0.60574002  0.11671406  0.17443746    -0.74100
O378        O  0.62008419  0.13929501  0.22651593    -0.73900
C379        C  0.64001598  0.24909097  0.23259131     0.77900
C380        C  0.73139925  0.24839112  0.14371161     0.78400
C381        C  0.73258210  0.15025495  0.23237900     0.77400
C382        C  0.70526794  0.11833685  0.10443948     0.77800
C383        C  0.60161268  0.21417171  0.10362321     0.78900
C384        C  0.60233072  0.11800418  0.20818981     0.77900
C385        C  0.52010537  0.47257833  0.18661726     0.03900
C386        C  0.49878133  0.49644745  0.20537627    -0.12200
C387        C  0.47776691  0.52175260  0.18806006     0.01400
C388        C  0.47770243  0.52291994  0.15094066    -0.10700
C389        C  0.49911730  0.49907842  0.13121630     0.03900
C390        C  0.52012716  0.47368825  0.14952983    -0.10200
H391        H  0.49850816  0.49525343  0.23397653     0.09500
H392        H  0.46122305  0.54252584  0.13762409     0.07000
H393        H  0.53614448  0.45461187  0.13508180     0.06900
C394        C  0.80152652  0.52276251  0.51670737     0.03900
C395        C  0.83905256  0.52236487  0.51666322    -0.12200
C396        C  0.85815580  0.49822363  0.49527207     0.01400
C397        C  0.83940854  0.47471943  0.47366740    -0.10700
C398        C  0.80201038  0.47491813  0.47402047     0.03900
C399        C  0.78359119  0.49845174  0.49589814    -0.10200
H400        H  0.85329156  0.54063776  0.53320640     0.09500
H401        H  0.85378356  0.45625041  0.45690107     0.07000
H402        H  0.75476491  0.49795761  0.49650954     0.06900
Zn403      Zn  0.69126462  0.30501115  0.30289896     1.49700
Zn404      Zn  0.61604355  0.31680316  0.32027608     1.49400
Zn405      Zn  0.67879865  0.31820520  0.37779762     1.49100
Zn406      Zn  0.67487914  0.37901227  0.31705861     1.49500
O407        O  0.66271903  0.33224489  0.33219281    -1.83300
O408        O  0.66669961  0.29748910  0.25777521    -0.74000
O409        O  0.59348762  0.29485293  0.36369048    -0.73800
O410        O  0.72040261  0.28331432  0.37402218    -0.73300
O411        O  0.61901628  0.27695283  0.28462796    -0.74000
O412        O  0.70197162  0.25854687  0.32493042    -0.73600
O413        O  0.63794160  0.29329967  0.40273057    -0.74200
O414        O  0.69867460  0.40283482  0.35859436    -0.73500
O415        O  0.59100166  0.35830384  0.29571858    -0.74300
O416        O  0.69866998  0.36121365  0.40095433    -0.73700
O417        O  0.63098782  0.40176129  0.29635785    -0.74200
O418        O  0.71065960  0.37818355  0.27640562    -0.74100
O419        O  0.73701780  0.32836549  0.29295724    -0.73900
C420        C  0.64056312  0.27675046  0.25876545     0.77900
C421        C  0.60639606  0.28513097  0.39345154     0.78400
C422        C  0.72247288  0.25873599  0.35132043     0.77400
C423        C  0.70715028  0.39190965  0.38953726     0.77800
C424        C  0.60094128  0.38951754  0.28696056     0.78900
C425        C  0.73624874  0.35603331  0.27395307     0.77900
C426        C  0.52426946  0.18902766  0.48030838     0.03900
C427        C  0.50245171  0.20667109  0.50451134    -0.12200
C428        C  0.48024826  0.18807922  0.52747965     0.01400
C429        C  0.47923856  0.15080052  0.52560514    -0.10700
C430        C  0.50113293  0.13211113  0.50138192     0.03900
C431        C  0.52353698  0.15175006  0.47862243    -0.10200
H432        H  0.50260857  0.23541150  0.50534022     0.09500
H433        H  0.46189260  0.13650622  0.54339099     0.07000
H434        H  0.54070884  0.13819972  0.45992782     0.06900
C435        C  0.52351383  0.79542983  0.51569737     0.03900
C436        C  0.49995701  0.77839420  0.49328472    -0.12200
C437        C  0.47810097  0.79753724  0.47015655     0.01400
C438        C  0.47839238  0.83493100  0.47063972    -0.10700
C439        C  0.50165555  0.85316320  0.49332308     0.03900
C440        C  0.52464106  0.83288781  0.51523597    -0.10200
H441        H  0.49838008  0.74971432  0.49387421     0.09500
H442        H  0.46084862  0.84961043  0.45313658     0.07000
H443        H  0.54331417  0.84621319  0.53212742     0.06900
Zn444      Zn  0.31383643  0.67693436  0.37475817     1.49700
Zn445      Zn  0.31212025  0.61939844  0.31046693     1.49400
Zn446      Zn  0.30294293  0.69674090  0.30018295     1.49100
Zn447      Zn  0.37551485  0.67570386  0.31364169     1.49500
O448        O  0.32787952  0.66425670  0.32748973    -1.83300
O449        O  0.29198808  0.63262556  0.39657485    -0.74000
O450        O  0.27368994  0.62649793  0.27284966    -0.73800
O451        O  0.25674357  0.70839762  0.32108762    -0.73300
O452        O  0.29010554  0.59363228  0.35217977    -0.74000
O453        O  0.27462000  0.71544855  0.37596783    -0.73600
O454        O  0.29379918  0.67765020  0.25305597    -0.74200
O455        O  0.37502716  0.71086589  0.27249482    -0.73500
O456        O  0.35436247  0.59508649  0.28653329    -0.74300
O457        O  0.32958924  0.74090648  0.29410497    -0.73700
O458        O  0.39953788  0.63226845  0.29370140    -0.74200
O459        O  0.39860576  0.69935404  0.35557417    -0.74100
O460        O  0.35703285  0.69873106  0.39807765    -0.73900
C461        C  0.28289230  0.60262109  0.38394823     0.77900
C462        C  0.27300407  0.65170218  0.25032710     0.78400
C463        C  0.25246536  0.72173793  0.35137534     0.77400
C464        C  0.35462977  0.73791559  0.27198751     0.77800
C465        C  0.38671186  0.60381779  0.28111647     0.78900
C466        C  0.38760324  0.70791209  0.38641887     0.77900
C467        C  0.19253022  0.51213415  0.46863397     0.03900
C468        C  0.21113051  0.49008157  0.49212422    -0.12200
C469        C  0.19323201  0.46820843  0.51589262     0.01400
C470        C  0.15580868  0.46884448  0.51688126    -0.10700
C471        C  0.13644386  0.49071930  0.49334294     0.03900
C472        C  0.15501211  0.51223859  0.46912073    -0.10200
H473        H  0.23996546  0.49023456  0.49227327     0.09500
H474        H  0.14187406  0.45228902  0.53569658     0.07000
H475        H  0.14035914  0.52920523  0.45099152     0.06900
C476        C  0.51997993  0.52739073  0.79636161     0.03900
C477        C  0.49769634  0.50320092  0.77985748    -0.12200
C478        C  0.47506191  0.48146584  0.79934434     0.01400
C479        C  0.47539342  0.48305767  0.83640093    -0.10700
C480        C  0.49828782  0.50647455  0.85418058     0.03900
C481        C  0.52048527  0.52868827  0.83367761    -0.10200
H482        H  0.49806899  0.50102374  0.75134692     0.09500
H483        H  0.45829631  0.46550414  0.85125861     0.07000
H484        H  0.53818012  0.54686634  0.84660249     0.06900
Zn485      Zn  0.31445529  0.37448557  0.68397293     1.49700
Zn486      Zn  0.30519042  0.29842859  0.70083223     1.49400
Zn487      Zn  0.31665537  0.31224448  0.62453004     1.49100
Zn488      Zn  0.37904195  0.31604005  0.68431120     1.49500
O489        O  0.33074219  0.32755861  0.67086226    -1.83300
O490        O  0.27550476  0.37196399  0.72219707    -0.74000
O491        O  0.25946038  0.28506485  0.68032765    -0.73800
O492        O  0.29434875  0.35478440  0.59937617    -0.73300
O493        O  0.29577019  0.32215286  0.74571980    -0.74000
O494        O  0.29165508  0.39683297  0.64052407    -0.73600
O495        O  0.27791321  0.27449649  0.62593912    -0.74200
O496        O  0.40244475  0.29065916  0.64252770    -0.73500
O497        O  0.33137867  0.25481894  0.71253538    -0.74300
O498        O  0.35962365  0.28885810  0.60177525    -0.73700
O499        O  0.38030412  0.28250502  0.72717989    -0.74200
O500        O  0.40159452  0.36101896  0.70186958    -0.74100
O501        O  0.35689555  0.40045654  0.70470705    -0.73900
C502        C  0.27462077  0.34845249  0.74642052     0.77900
C503        C  0.25551575  0.27016853  0.65075565     0.78400
C504        C  0.28422856  0.38559991  0.60967340     0.77400
C505        C  0.39083655  0.28053278  0.61251540     0.77800
C506        C  0.35810600  0.25788252  0.73234750     0.78900
C507        C  0.38927233  0.39142989  0.71083150     0.77900
Zn508      Zn  0.64815885  0.64363177  0.64177443     1.49700
Zn509      Zn  0.66610835  0.72296715  0.66610739     1.49400
Zn510      Zn  0.67502820  0.66121597  0.72045506     1.49100
Zn511      Zn  0.72827298  0.67100553  0.65768883     1.49500
O512        O  0.67849655  0.67362385  0.67099792    -1.83300
O513        O  0.61654079  0.67694523  0.60990698    -0.74000
O514        O  0.64514192  0.74410424  0.70860094    -0.73800
O515        O  0.63900752  0.62495899  0.72821557    -0.73300
O516        O  0.63252018  0.73070348  0.62755849    -0.74000
O517        O  0.61672276  0.61215212  0.67554593    -0.73600
O518        O  0.66168953  0.70416221  0.74873595    -0.74200
O519        O  0.75849870  0.66297190  0.70021568    -0.73500
O520        O  0.70933391  0.75222616  0.66081914    -0.74300
O521        O  0.72107073  0.64378194  0.74124770    -0.73700
O522        O  0.74845095  0.71557799  0.63643877    -0.74200
O523        O  0.73583253  0.63111642  0.62568197    -0.74100
O524        O  0.68194341  0.61170532  0.61128467    -0.73900
C525        C  0.61397278  0.71090694  0.60814456     0.77900
C526        C  0.65049617  0.73499046  0.74029333     0.78400
C527        C  0.61767883  0.60777484  0.70918693     0.77400
C528        C  0.75229633  0.65113043  0.73099583     0.77800
C529        C  0.73991194  0.74599543  0.64805128     0.78900
C530        C  0.71600860  0.61003666  0.60906506     0.77900
C531        C  0.30566574  0.01589662  0.52621202     0.03900
C532        C  0.34306767  0.01601465  0.52418959    -0.12200
C533        C  0.36160223  0.99298922  0.50089159     0.01400
C534        C  0.34157404  0.96989763  0.47962105    -0.10700
C535        C  0.30408501  0.96957501  0.48182285     0.03900
C536        C  0.28665365  0.99255122  0.50519278    -0.10200
H537        H  0.35754425  0.03429440  0.54050341     0.09500
H538        H  0.35499953  0.95203767  0.46146678     0.07000
H539        H  0.25787864  0.99271855  0.50661095     0.06900
C540        C  0.69780651  0.96737007  0.52318938     0.03900
C541        C  0.66037608  0.96827387  0.52319624    -0.12200
C542        C  0.64159189  0.99265640  0.50153353     0.01400
C543        C  0.66131798  0.01680022  0.48071242    -0.10700
C544        C  0.69892870  0.01516342  0.47970709     0.03900
C545        C  0.71643610  0.99012931  0.50088171    -0.10200
H546        H  0.64608123  0.94997229  0.54000847     0.09500
H547        H  0.64740694  0.03662225  0.46506478     0.07000
H548        H  0.74519620  0.98837751  0.50031762     0.06900
C549        C  0.97750787  0.29733274  0.47378091     0.03900
C550        C  0.00085523  0.28105317  0.49764029    -0.12200
C551        C  0.02334111  0.30097257  0.51865652     0.01400
C552        C  0.02212642  0.33813663  0.51666508    -0.10700
C553        C  0.99812016  0.35542411  0.49370854     0.03900
C554        C  0.97572915  0.33484808  0.47223700    -0.10200
H555        H  0.00153886  0.25236723  0.50002722     0.09500
H556        H  0.03938815  0.35352728  0.53332126     0.07000
H557        H  0.95722814  0.34787828  0.45444675     0.06900
C558        C  0.97453650  0.01670469  0.20179380     0.03900
C559        C  0.99544414  0.99055049  0.21803323    -0.12200
C560        C  0.01720133  0.96785190  0.19839327     0.01400
C561        C  0.01747185  0.97054506  0.16130196    -0.10700
C562        C  0.99549578  0.99578283  0.14401704     0.03900
C563        C  0.97409020  0.01892133  0.16454350    -0.10200
H564        H  0.99521415  0.98810671  0.24656019     0.09500
H565        H  0.03457422  0.95308279  0.14603332     0.07000
H566        H  0.95755044  0.03877108  0.15165034     0.06900
C567        C  0.98376559  0.68741701  0.53766819     0.03900
C568        C  0.00647992  0.70583219  0.51519272    -0.12200
C569        C  0.02506073  0.68833443  0.48851425     0.01400
C570        C  0.02188642  0.65154664  0.48469351    -0.10700
C571        C  0.00003200  0.63224425  0.50781181     0.03900
C572        C  0.98048668  0.65039159  0.53414282    -0.10200
H573        H  0.00860881  0.73437570  0.51754474     0.09500
H574        H  0.03667432  0.63799192  0.46409829     0.07000
H575        H  0.96287695  0.63594509  0.55157194     0.06900
Zn576      Zn  0.19315687  0.79638405  0.30798574     1.49700
Zn577      Zn  0.17708983  0.87127180  0.32414003     1.49400
Zn578      Zn  0.11849579  0.80867505  0.32509890     1.49100
Zn579      Zn  0.18276485  0.80883208  0.38323304     1.49500
O580        O  0.16544059  0.82381278  0.33769540    -1.83300
O581        O  0.23895060  0.81936928  0.29777170    -0.74000
O582        O  0.13303492  0.89409862  0.30243017    -0.73800
O583        O  0.12009849  0.76797326  0.28931972    -0.73300
O584        O  0.21374240  0.87097880  0.28461379    -0.74000
O585        O  0.16889830  0.78697029  0.26340167    -0.73600
O586        O  0.09345156  0.85037577  0.30122770    -0.74200
O587        O  0.14099167  0.78646529  0.40800590    -0.73500
O588        O  0.20061296  0.89486086  0.36651009    -0.74300
O589        O  0.09625428  0.78875741  0.36930807    -0.73700
O590        O  0.20412125  0.85166139  0.40712767    -0.74200
O591        O  0.22246805  0.77079044  0.37907914    -0.74100
O592        O  0.20220024  0.74982863  0.32912669    -0.73900
C593        C  0.23877146  0.84836008  0.28077842     0.77900
C594        C  0.10301221  0.88177545  0.29286792     0.78400
C595        C  0.14290490  0.76599099  0.26454648     0.77400
C596        C  0.10904255  0.77945044  0.39925179     0.77800
C597        C  0.21080571  0.88322999  0.39673686     0.78900
C598        C  0.22349563  0.74769633  0.35473629     0.77900
Zn599      Zn  0.82875152  0.21971771  0.33928614     1.49700
Zn600      Zn  0.83480826  0.16347082  0.27915792     1.49400
Zn601      Zn  0.85430017  0.13933400  0.35913948     1.49100
Zn602      Zn  0.77408532  0.15887023  0.33365440     1.49500
O603        O  0.82393417  0.16987802  0.32861866    -1.83300
O604        O  0.84467214  0.24687460  0.29667579    -0.74000
O605        O  0.86714171  0.12356482  0.27260882    -0.73800
O606        O  0.88540995  0.17284278  0.39085115    -0.73300
O607        O  0.85458966  0.20609537  0.25572325    -0.74000
O608        O  0.86341242  0.22620772  0.37669486    -0.73600
O609        O  0.88551919  0.10637971  0.32594676    -0.74200
O610        O  0.76727595  0.12361691  0.36986308    -0.73500
O611        O  0.79153776  0.15492438  0.25086045    -0.74300
O612        O  0.82045934  0.10779211  0.39054705    -0.73700
O613        O  0.75065322  0.14168970  0.29071360    -0.74200
O614        O  0.74428433  0.20100200  0.34448930    -0.74100
O615        O  0.78305360  0.24357064  0.35405438    -0.73900
C616        C  0.85323585  0.23817525  0.26541584     0.77900
C617        C  0.88570432  0.10333832  0.29216961     0.78400
C618        C  0.88422968  0.20670883  0.39473962     0.77400
C619        C  0.78642369  0.10499755  0.39033842     0.77800
C620        C  0.75998540  0.14677267  0.25904913     0.78900
C621        C  0.75132073  0.23282098  0.35178261     0.77900
C622        C  0.01686463  0.03691220  0.81197782     0.03900
C623        C  0.01689607  0.03686882  0.84905181    -0.12200
C624        C  0.99403910  0.01428584  0.86797193     0.01400
C625        C  0.97171363  0.99118824  0.84924394    -0.10700
C626        C  0.97228823  0.99082629  0.81201988     0.03900
C627        C  0.99425375  0.01441676  0.79391052    -0.10200
H628        H  0.03490768  0.05394617  0.86305631     0.09500
H629        H  0.95490807  0.97287676  0.86350817     0.07000
H630        H  0.99465426  0.01445347  0.76528949     0.06900
Zn631      Zn  0.82791288  0.81693922  0.63087084     1.49700
Zn632      Zn  0.88692149  0.82313411  0.69311720     1.49400
Zn633      Zn  0.81951537  0.87784585  0.68952850     1.49100
Zn634      Zn  0.81287947  0.80210212  0.70583668     1.49500
O635        O  0.83894962  0.83237366  0.67741586    -1.83300
O636        O  0.87205190  0.79517488  0.61057385    -0.74000
O637        O  0.90639875  0.86950439  0.71179923    -0.73800
O638        O  0.79793785  0.89968626  0.64567622    -0.73300
O639        O  0.91293352  0.79697700  0.65311537    -0.74000
O640        O  0.80496563  0.85793370  0.60452145    -0.73600
O641        O  0.85854151  0.90534595  0.71402122    -0.74200
O642        O  0.80114686  0.82517368  0.75078513    -0.73500
O643        O  0.88697955  0.78948389  0.73572590    -0.74300
O644        O  0.77853612  0.87233717  0.72411976    -0.73700
O645        O  0.84068361  0.75953576  0.71739399    -0.74200
O646        O  0.76820795  0.78736616  0.68298184    -0.74100
O647        O  0.79157590  0.77739419  0.63034850    -0.73900
C648        C  0.90254276  0.78643190  0.62281740     0.77900
C649        C  0.89106672  0.89840726  0.72153952     0.78400
C650        C  0.79277152  0.88804140  0.61454027     0.77400
C651        C  0.77844348  0.85009396  0.74942017     0.77800
C652        C  0.86607002  0.76342608  0.73872330     0.78900
C653        C  0.76737598  0.77231634  0.65320808     0.77900
Zn654      Zn  0.19666123  0.20004934  0.69805819     1.49700
Zn655      Zn  0.12336830  0.18587126  0.68261101     1.49400
Zn656      Zn  0.18652945  0.18295181  0.62333708     1.49100
Zn657      Zn  0.18428995  0.12309513  0.68563950     1.49500
O658        O  0.17058965  0.17013096  0.67015730    -1.83300
O659        O  0.17269199  0.21266227  0.74230876    -0.74000
O660        O  0.10038763  0.20369077  0.63826268    -0.73800
O661        O  0.22596560  0.22043148  0.62545956    -0.73300
O662        O  0.12305853  0.22880508  0.71587335    -0.74000
O663        O  0.20437148  0.24502494  0.67355689    -0.73600
O664        O  0.14366968  0.20466066  0.59778445    -0.74200
O665        O  0.20569196  0.09664325  0.64317903    -0.73500
O666        O  0.09960302  0.14496182  0.70776523    -0.74300
O667        O  0.20833958  0.13855982  0.60140920    -0.73700
O668        O  0.14072027  0.10169973  0.70930733    -0.74200
O669        O  0.22339994  0.12501375  0.72320072    -0.74100
O670        O  0.24279762  0.17854064  0.70954777    -0.73900
C671        C  0.14591671  0.23315691  0.73999380     0.77900
C672        C  0.11171135  0.21184432  0.60751778     0.78400
C673        C  0.22644379  0.24495161  0.64839112     0.77400
C674        C  0.21501032  0.10696178  0.61223467     0.77800
C675        C  0.10993809  0.11399933  0.71763958     0.78900
C676        C  0.24613325  0.14953254  0.72630752     0.77900
C677        C  0.07520463  0.04420379  0.78242463    -0.11500
C678        C  0.04171389  0.05841131  0.79089319     0.05500
C679        C  0.03025541  0.09002327  0.77452972    -0.06800
C680        C  0.05246930  0.10721670  0.75033455    -0.07500
C681        C  0.08618218  0.09310582  0.74137813    -0.02000
C682        C  0.09740079  0.06102632  0.75787192     0.04800
N683        N  0.13105644  0.04492751  0.74994380     0.67300
H684        H  0.08373741  0.01921891  0.79418909     0.16200
H685        H  0.04303626  0.13178108  0.73841491     0.15900
N686        N  0.99578069  0.10459002  0.78185825     0.75000
O687        O  0.15651942  0.04785033  0.77125316    -0.38500
O688        O  0.13380024  0.02369557  0.72446654    -0.38400
O689        O  0.99245994  0.13036482  0.80270316    -0.39100
O690        O  0.96911592  0.09389111  0.76507670    -0.39200
C691        C  0.91446183  0.96585243  0.79245732    -0.11500
C692        C  0.95169914  0.96510341  0.79095823     0.05500
C693        C  0.96888062  0.94301594  0.76585335    -0.06800
C694        C  0.94850981  0.92266343  0.74279004    -0.07500
C695        C  0.91122057  0.92328982  0.74415836    -0.02000
C696        C  0.89416224  0.94523385  0.76949332     0.04800
N697        N  0.85631157  0.94608066  0.77307875     0.67300
H698        H  0.90099792  0.98301458  0.81126805     0.16200
H699        H  0.96207918  0.90562965  0.72395380     0.15900
N700        N  0.00700009  0.94071935  0.76365392     0.75000
O701        O  0.84090182  0.92210453  0.79048120    -0.38500
O702        O  0.83888316  0.97306253  0.76299953    -0.38400
O703        O  0.02546278  0.93832302  0.79131931    -0.39100
O704        O  0.02218701  0.93850442  0.73398567    -0.39200
C705        C  0.05645192  0.74116483  0.40951218    -0.11500
C706        C  0.08696217  0.75738547  0.42316328     0.05500
C707        C  0.09749839  0.74908713  0.45807311    -0.06800
C708        C  0.07756370  0.72541660  0.47828102    -0.07500
C709        C  0.04708473  0.70972703  0.46463640    -0.02000
C710        C  0.03624271  0.71771227  0.42992720     0.04800
N711        N  0.00446861  0.70304991  0.41539158     0.67300
H712        H  0.04804074  0.74677771  0.38268036     0.16200
H713        H  0.08555740  0.71971956  0.50525222     0.15900
N714        N  0.12809723  0.76463342  0.47364022     0.75000
O715        O  0.97566066  0.70422227  0.43255433    -0.38500
O716        O  0.00420316  0.69251136  0.38386389    -0.38400
O717        O  0.12651173  0.79612718  0.48460807    -0.39100
O718        O  0.15508064  0.74561582  0.48044122    -0.39200
C719        C  0.97853364  0.72655707  0.58993247    -0.11500
C720        C  0.96183368  0.70877031  0.56222220     0.05500
C721        C  0.92596245  0.71661629  0.55459326    -0.06800
C722        C  0.90768281  0.74205095  0.57465790    -0.07500
C723        C  0.92438372  0.76064033  0.60204358    -0.02000
C724        C  0.96014981  0.75201999  0.61005836     0.04800
N725        N  0.97845742  0.76926352  0.63794715     0.67300
H726        H  0.00638859  0.72117197  0.59543437     0.16200
H727        H  0.88010470  0.74765172  0.56818560     0.15900
N728        N  0.90819334  0.70039653  0.52551301     0.75000
O729        O  0.97738310  0.75644496  0.66874362    -0.38500
O730        O  0.00014797  0.79354355  0.63082003    -0.38400
O731        O  0.87682391  0.68944642  0.52926447    -0.39100
O732        O  0.92170264  0.70149308  0.49501140    -0.39200
C733        C  0.91567664  0.04132283  0.21988560    -0.11500
C734        C  0.95251172  0.04025417  0.22479978     0.05500
C735        C  0.96709047  0.05744773  0.25463206    -0.06800
C736        C  0.94439858  0.07497698  0.27869870    -0.07500
C737        C  0.90762213  0.07653560  0.27328487    -0.02000
C738        C  0.89312659  0.05887006  0.24380691     0.04800
N739        N  0.85540400  0.05851605  0.23793722     0.67300
H740        H  0.90418672  0.02723673  0.19788952     0.16200
H741        H  0.95578158  0.08962030  0.30037635     0.15900
N742        N  0.00487943  0.05867276  0.25999276     0.75000
O743        O  0.84320952  0.06129234  0.20705699    -0.38500
O744        O  0.83428942  0.05304413  0.26329959    -0.38400
O745        O  0.02561487  0.06368864  0.23422994    -0.39100
O746        O  0.01741087  0.05793865  0.29083103    -0.39200
C747        C  0.09636949  0.92930143  0.24714214    -0.11500
C748        C  0.08025146  0.90344947  0.26867844     0.05500
C749        C  0.04368342  0.89668820  0.26390623    -0.06800
C750        C  0.02405398  0.91637772  0.23906574    -0.07500
C751        C  0.04011546  0.94266784  0.21831519    -0.02000
C752        C  0.07668453  0.94880426  0.22220465     0.04800
N753        N  0.09378250  0.97595105  0.20217987     0.67300
H754        H  0.12455309  0.93449308  0.24959100     0.16200
H755        H  0.99568693  0.91201354  0.23683057     0.15900
N756        N  0.02572675  0.87089202  0.28492649     0.75000
O757        O  0.09054142  0.00794642  0.21128587    -0.38500
O758        O  0.11460059  0.96770981  0.17729871    -0.38400
O759        O  0.01425214  0.87911396  0.31513489    -0.39100
O760        O  0.01714161  0.84169442  0.27154393    -0.39200
C761        C  0.03198145  0.26416868  0.57205416    -0.11500
C762        C  0.04709851  0.28160817  0.54311492     0.05500
C763        C  0.08283088  0.27475575  0.53429010    -0.06800
C764        C  0.10293826  0.25064054  0.55449098    -0.07500
C765        C  0.08801123  0.23301493  0.58377992    -0.02000
C766        C  0.05177288  0.23989037  0.59228961     0.04800
N767        N  0.03424246  0.22189050  0.62069757     0.67300
H768        H  0.00401181  0.26841131  0.57810351     0.16200
H769        H  0.13065906  0.24631859  0.54754295     0.15900
N770        N  0.09868665  0.29145519  0.50429810     0.75000
O771        O  0.01746619  0.23946483  0.64373895    -0.38500
O772        O  0.03128497  0.18860823  0.62002902    -0.38400
O773        O  0.10958504  0.32286067  0.50643195    -0.39100
O774        O  0.10380599  0.27412634  0.47634669    -0.39200
C775        C  0.91728523  0.27915523  0.45436249    -0.11500
C776        C  0.95416980  0.27413727  0.45234971     0.05500
C777        C  0.96787039  0.24409801  0.43400787    -0.06800
C778        C  0.94431947  0.22013289  0.41833447    -0.07500
C779        C  0.90748369  0.22573610  0.41969031    -0.02000
C780        C  0.89383483  0.25530103  0.43866072     0.04800
N781        N  0.85614954  0.26123822  0.44239463     0.67300
H782        H  0.90653215  0.30126120  0.46947439     0.16200
H783        H  0.95497338  0.19829436  0.40278809     0.15900
N784        N  0.00552451  0.23838326  0.42974413     0.75000
O785        O  0.83565127  0.23549784  0.44777666    -0.38500
O786        O  0.84358091  0.29241889  0.44325812    -0.38400
O787        O  0.01819551  0.20725187  0.42869549    -0.39100
O788        O  0.02580643  0.26417215  0.42379714    -0.39200
C789        C  0.74651872  0.92317201  0.53224129    -0.11500
C790        C  0.71897181  0.94395364  0.54691321     0.05500
C791        C  0.71572604  0.94590463  0.58392878    -0.06800
C792        C  0.74058758  0.92801386  0.60526037    -0.07500
C793        C  0.76913444  0.90857710  0.59056440    -0.02000
C794        C  0.77180188  0.90594428  0.55353395     0.04800
N795        N  0.80086452  0.88735931  0.53712334     0.67300
H796        H  0.74940709  0.92175532  0.50377387     0.16200
H797        H  0.73761972  0.92952282  0.63370840     0.15900
N798        N  0.68833375  0.96694420  0.60027985     0.75000
O799        O  0.79506696  0.86563828  0.51268845    -0.38500
O800        O  0.83247283  0.89544277  0.54432851    -0.38400
O801        O  0.66966725  0.95387619  0.62472349    -0.39100
O802        O  0.68536688  0.99957232  0.59314808    -0.39200
C803        C  0.75350757  0.05184643  0.46942583    -0.11500
C804        C  0.72103265  0.03852984  0.45651714     0.05500
C805        C  0.71174902  0.04601229  0.42114443    -0.06800
C806        C  0.73421335  0.06689762  0.40037310    -0.07500
C807        C  0.76668805  0.07980271  0.41315392    -0.02000
C808        C  0.77660269  0.07149324  0.44790237     0.04800
N809        N  0.80944749  0.08355159  0.46197650     0.67300
H810        H  0.76122225  0.04690920  0.49658359     0.16200
H811        H  0.72636994  0.07258731  0.37336282     0.15900
N812        N  0.68050893  0.03168693  0.40528170     0.75000
O813        O  0.80979180  0.11011348  0.48201463    -0.38500
O814        O  0.83755152  0.06554459  0.45728558    -0.38400
O815        O  0.66086787  0.05117352  0.38618620    -0.39100
O816        O  0.67512464  0.99873896  0.40636511    -0.39200
C817        C  0.26590937  0.06850956  0.53328919    -0.11500
C818        C  0.28521933  0.04069688  0.54911855     0.05500
C819        C  0.27985269  0.03345712  0.58518346    -0.06800
C820        C  0.25564334  0.05418345  0.60482984    -0.07500
C821        C  0.23649091  0.08256401  0.58923033    -0.02000
C822        C  0.24156043  0.08928269  0.55268579     0.04800
N823        N  0.22127587  0.11605166  0.53442857     0.67300
H824        H  0.26881603  0.07323227  0.50522382     0.16200
H825        H  0.25258350  0.04854751  0.63270019     0.15900
N826        N  0.29821504  0.00457496  0.60197018     0.75000
O827        O  0.23643891  0.13660189  0.51288618    -0.38500
O828        O  0.18774132  0.11589637  0.53595742    -0.38400
O829        O  0.33129859  0.00608058  0.60704334    -0.39100
O830        O  0.28116796  0.97810963  0.61299992    -0.39200
C831        C  0.25838200  0.92263903  0.47588393    -0.11500
C832        C  0.28195591  0.94622679  0.45949484     0.05500
C833        C  0.28167935  0.94921268  0.42234042    -0.06800
C834        C  0.25763942  0.92909113  0.40272983    -0.07500
C835        C  0.23355225  0.90597969  0.41912529    -0.02000
C836        C  0.23445922  0.90253027  0.45625645     0.04800
N837        N  0.21060730  0.87947491  0.47443846     0.67300
H838        H  0.25814634  0.92024252  0.50469650     0.16200
H839        H  0.25791669  0.93151745  0.37392448     0.15900
N840        N  0.30494469  0.97307305  0.40423458     0.75000
O841        O  0.22256864  0.85271987  0.49087837    -0.38500
O842        O  0.17806281  0.88765761  0.47689451    -0.38400
O843        O  0.32115522  0.96303508  0.37679590    -0.39100
O844        O  0.30648382  0.00514802  0.41330906    -0.39200
C845        C  0.58063469  0.54867643  0.78140695    -0.11500
C846        C  0.54420331  0.54921341  0.77391362     0.05500
C847        C  0.53228341  0.56698085  0.74282331    -0.06800
C848        C  0.55712720  0.58329407  0.72021021    -0.07500
C849        C  0.59344770  0.58327581  0.72823373    -0.02000
C850        C  0.60528434  0.56506897  0.75896741     0.04800
N851        N  0.64242232  0.56252189  0.76745383     0.67300
H852        H  0.59026347  0.53415607  0.80436820     0.16200
H853        H  0.54770755  0.59815520  0.69738419     0.15900
N854        N  0.49506131  0.57016934  0.73467382     0.75000
O855        O  0.65253946  0.56569449  0.79897087    -0.38500
O856        O  0.66486150  0.55412758  0.74400818    -0.38400
O857        O  0.47259764  0.57621071  0.75879173    -0.39100
O858        O  0.48490951  0.57044554  0.70297281    -0.39200
C859        C  0.46867347  0.42995085  0.75956223    -0.11500
C860        C  0.45224578  0.45657500  0.77973766     0.05500
C861        C  0.41547721  0.46281740  0.77586990    -0.06800
C862        C  0.39594314  0.44260185  0.75191796    -0.07500
C863        C  0.41221776  0.41561438  0.73170197    -0.02000
C864        C  0.44932733  0.40959153  0.73561391     0.04800
N865        N  0.46812291  0.38377470  0.71484049     0.67300
H866        H  0.49720244  0.42584171  0.76153148     0.16200
H867        H  0.36754607  0.44749457  0.74994815     0.15900
N868        N  0.39777555  0.49015733  0.79545467     0.75000
O869        O  0.46671176  0.38530764  0.68160956    -0.38500
O870        O  0.49003462  0.36273417  0.72935272    -0.38400
O871        O  0.38257468  0.51548824  0.77940667    -0.39100
O872        O  0.39285343  0.48631850  0.82818300    -0.39200
C873        C  0.25458803  0.39579909  0.55135674    -0.11500
C874        C  0.26134104  0.40776051  0.58577930     0.05500
C875        C  0.24383613  0.43921767  0.59726561    -0.06800
C876        C  0.22092253  0.45783084  0.57443300    -0.07500
C877        C  0.21471367  0.44587844  0.54016903    -0.02000
C878        C  0.23187214  0.41462223  0.52848794     0.04800
N879        N  0.22633951  0.40152119  0.49357234     0.67300
H880        H  0.26727099  0.37168514  0.54183130     0.16200
H881        H  0.20808826  0.48209357  0.58344701     0.15900
N882        N  0.24836425  0.45240939  0.63218784     0.75000
O883        O  0.23659596  0.41925586  0.46719336    -0.38500
O884        O  0.21618677  0.37008955  0.48928600    -0.38400
O885        O  0.26719931  0.47935055  0.63715916    -0.39100
O886        O  0.22935603  0.44062430  0.65701177    -0.39200
C887        C  0.24063612  0.52029690  0.42402762    -0.11500
C888        C  0.21347478  0.53545487  0.44483974     0.05500
C889        C  0.20940128  0.57264733  0.44530870    -0.06800
C890        C  0.23294223  0.59379201  0.42588604    -0.07500
C891        C  0.26080832  0.57872847  0.40591836    -0.02000
C892        C  0.26441550  0.54137956  0.40469559     0.04800
N893        N  0.29270104  0.52449304  0.38521245     0.67300
H894        H  0.24406974  0.49167529  0.42376867     0.16200
H895        H  0.22935923  0.62239243  0.42638996     0.15900
N896        N  0.18233529  0.58939986  0.46626701     0.75000
O897        O  0.32394238  0.53621683  0.38678629    -0.38500
O898        O  0.28740400  0.49549537  0.36975833    -0.38400
O899        O  0.18180738  0.58491771  0.49927544    -0.39100
O900        O  0.16067356  0.61097393  0.45217785    -0.39200
C901        C  0.56338064  0.74251603  0.52676098    -0.11500
C902        C  0.54609527  0.77325851  0.53976181     0.05500
C903        C  0.54960977  0.78142807  0.57580528    -0.06800
C904        C  0.57118319  0.76003966  0.59738996    -0.07500
C905        C  0.58843382  0.72943886  0.58446879    -0.02000
C906        C  0.58391960  0.72036347  0.54886747     0.04800
N907        N  0.60140231  0.68987215  0.53442123     0.67300
H908        H  0.56109312  0.73570058  0.49910930     0.16200
H909        H  0.57413703  0.76721121  0.62490449     0.15900
N910        N  0.53083138  0.81077802  0.59118986     0.75000
O911        O  0.58868724  0.65948551  0.53962673    -0.38500
O912        O  0.62697944  0.69362480  0.51315633    -0.38400
O913        O  0.49745275  0.81335494  0.58853568    -0.39100
O914        O  0.54734738  0.83291014  0.60951253    -0.39200
C915        C  0.41814105  0.78028503  0.44897485    -0.11500
C916        C  0.45518743  0.77717092  0.44595041     0.05500
C917        C  0.46996252  0.75089482  0.42349900    -0.06800
C918        C  0.44738608  0.72821343  0.40510048    -0.07500
C919        C  0.41029586  0.73108941  0.40822867    -0.02000
C920        C  0.39557954  0.75783190  0.43019947     0.04800
N921        N  0.35790161  0.76345044  0.43277193     0.67300
H922        H  0.40664259  0.80013129  0.46637543     0.16200
H923        H  0.45896968  0.70826132  0.38788148     0.15900
N924        N  0.50779648  0.74691730  0.41913644     0.75000
O925        O  0.34316582  0.76531872  0.46267367    -0.38500
O926        O  0.34019752  0.77138119  0.40556570    -0.38400
O927        O  0.52165548  0.71645248  0.41585862    -0.39100
O928        O  0.52720412  0.77383725  0.41613097    -0.39200
C929        C  0.42083442  0.20656597  0.55046314    -0.11500
C930        C  0.45790585  0.20878097  0.55261124     0.05500
C931        C  0.47299448  0.23459999  0.57487812    -0.06800
C932        C  0.45064342  0.25816318  0.59342644    -0.07500
C933        C  0.41351497  0.25668440  0.59050838    -0.02000
C934        C  0.39862539  0.23019649  0.56892966     0.04800
N935        N  0.36098006  0.22633976  0.56604292     0.67300
H936        H  0.40898049  0.18713696  0.53323511     0.16200
H937        H  0.46242618  0.27771109  0.61054866     0.15900
N938        N  0.51087459  0.23708762  0.57904801     0.75000
O939        O  0.34402719  0.24424121  0.54330200    -0.38500
O940        O  0.34589349  0.20097515  0.58165359    -0.38400
O941        O  0.52504587  0.26689457  0.58341684    -0.39100
O942        O  0.52999677  0.20940090  0.58097657    -0.39200
C943        C  0.57154811  0.23410519  0.47327022    -0.11500
C944        C  0.54759979  0.21082518  0.45741808     0.05500
C945        C  0.54329447  0.21204255  0.42058157    -0.06800
C946        C  0.56193116  0.23708686  0.40048116    -0.07500
C947        C  0.58519650  0.26116572  0.41639358    -0.02000
C948        C  0.59031701  0.25908927  0.45324270     0.04800
N949        N  0.61350492  0.28289746  0.47089938     0.67300
H950        H  0.57484210  0.23358895  0.50170028     0.16200
H951        H  0.55830981  0.23749888  0.37210138     0.15900
N952        N  0.51916144  0.18888757  0.40339696     0.75000
O953        O  0.60649560  0.31569983  0.47117931    -0.38500
O954        O  0.63922684  0.27087720  0.48880103    -0.38400
O955        O  0.48613137  0.19498534  0.40492212    -0.39100
O956        O  0.53097288  0.16429592  0.38403960    -0.39200
C957        C  0.78706122  0.54692719  0.57587868    -0.11500
C958        C  0.78010032  0.54678244  0.53963631     0.05500
C959        C  0.74987449  0.56566690  0.52666497    -0.06800
C960        C  0.72713354  0.58336336  0.55043761    -0.07500
C961        C  0.73447457  0.58379932  0.58656238    -0.02000
C962        C  0.76465099  0.56505021  0.59948711     0.04800
N963        N  0.77260485  0.56389598  0.63656014     0.67300
H964        H  0.80948766  0.53166752  0.58609618     0.16200
H965        H  0.70489562  0.59900416  0.54036951     0.15900
N966        N  0.74279880  0.56843273  0.48947055     0.75000
O967        O  0.74792916  0.56082449  0.65899881    -0.38500
O968        O  0.80448849  0.56295383  0.64686367    -0.38400
O969        O  0.71118946  0.57094221  0.47855008    -0.39100
O970        O  0.76802642  0.57192663  0.46771380    -0.39200
C971        C  0.75647042  0.42859148  0.46826706    -0.11500
C972        C  0.78072157  0.45129198  0.45173267     0.05500
C973        C  0.78055264  0.45455996  0.41470026    -0.06800
C974        C  0.75552489  0.43582900  0.39509733    -0.07500
C975        C  0.73035423  0.41398804  0.41170923    -0.02000
C976        C  0.73131126  0.41008621  0.44879915     0.04800
N977        N  0.70637519  0.38824877  0.46719022     0.67300
H978        H  0.75625067  0.42626595  0.49687284     0.16200
H979        H  0.75590888  0.43829602  0.36651534     0.15900
N980        N  0.80484888  0.47747213  0.39676454     0.75000
O981        O  0.71730718  0.36461248  0.48836280    -0.38500
O982        O  0.67344672  0.39457403  0.46466839    -0.38400
O983        O  0.82368929  0.46569373  0.37172699    -0.39100
O984        O  0.80524800  0.51013580  0.40373897    -0.39200
C985        C  0.44666882  0.58314389  0.26131467    -0.11500
C986        C  0.40959452  0.58203376  0.25742556     0.05500
C987        C  0.39535163  0.56300208  0.22875636    -0.06800
C988        C  0.41820394  0.54478054  0.20563418    -0.07500
C989        C  0.45517038  0.54571000  0.20976178    -0.02000
C990        C  0.46964296  0.56561156  0.23772984     0.04800
N991        N  0.50746300  0.56863125  0.24226860     0.67300
H992        H  0.45795613  0.59842372  0.28261039     0.16200
H993        H  0.40693529  0.52948961  0.18432369     0.15900
N994        N  0.35795618  0.56313813  0.22173828     0.75000
O995        O  0.52771863  0.57155187  0.21581100    -0.38500
O996        O  0.52041698  0.57159491  0.27276425    -0.38400
O997        O  0.34228317  0.59178146  0.21350642    -0.39100
O998        O  0.34191665  0.53418982  0.21828259    -0.39200
C999        C  0.52423492  0.42349576  0.23009822    -0.11500
C1000       C  0.54188056  0.44707601  0.20738041     0.05500
C1001       C  0.57875330  0.45178470  0.21129867    -0.06800
C1002       C  0.59679225  0.43400890  0.23856633    -0.07500
C1003       C  0.57910601  0.41087942  0.26186306    -0.02000
C1004       C  0.54230916  0.40546460  0.25725465     0.04800
N1005       N  0.52256339  0.38330006  0.28088993     0.67300
H1006       H  0.49562536  0.42067294  0.22793225     0.16200
H1007       H  0.62527881  0.43764128  0.24085339     0.15900
N1008       N  0.59806738  0.47523821  0.18855670     0.75000
O1009       O  0.52423023  0.38814954  0.31374897    -0.38500
O1010       O  0.50028607  0.36177216  0.26889500    -0.38400
O1011       O  0.61875499  0.49768497  0.20162611    -0.39100
O1012       O  0.59958713  0.46921746  0.15588803    -0.39200
C1013       C  0.42602806  0.02002617  0.73935562    -0.11500
C1014       C  0.44773756  0.03525487  0.71316797     0.05500
C1015       C  0.44900515  0.07250684  0.71016721    -0.06800
C1016       C  0.42979584  0.09352064  0.73414211    -0.07500
C1017       C  0.40947030  0.07829982  0.76138394    -0.02000
C1018       C  0.40710489  0.04108146  0.76353063     0.04800
N1019       N  0.38710217  0.02430692  0.79104898     0.67300
H1020       H  0.42511694  0.99136216  0.74204128     0.16200
H1021       H  0.43094885  0.12217958  0.73154621     0.15900
N1022       N  0.47061111  0.08943353  0.68393576     0.75000
O1023       O  0.36543030  0.00019181  0.78372287    -0.38500
O1024       O  0.39350396  0.03116420  0.82292399    -0.38400
O1025       O  0.45769525  0.11420434  0.66526668    -0.39100
O1026       O  0.50347842  0.08249441  0.68204890    -0.39200
C1027       C  0.57158644  0.89256211  0.74116748    -0.11500
C1028       C  0.58685151  0.90899332  0.77062918     0.05500
C1029       C  0.58160500  0.94564533  0.77497000    -0.06800
C1030       C  0.56161295  0.96504641  0.74999880    -0.07500
C1031       C  0.54600306  0.94850412  0.72057381    -0.02000
C1032       C  0.55093582  0.91166264  0.71662671     0.04800
N1033       N  0.53455002  0.89299672  0.68841588     0.67300
H1034       H  0.57565487  0.86432830  0.73725117     0.16200
H1035       H  0.55834654  0.99340301  0.75357754     0.15900
N1036       N  0.59818939  0.96383987  0.80329134     0.75000
O1037       O  0.55303723  0.87247254  0.66945385    -0.38500
O1038       O  0.50117228  0.89368528  0.68504716    -0.38400
O1039       O  0.62817273  0.97780494  0.79871389    -0.39100
O1040       O  0.58163863  0.96847990  0.83192323    -0.39200
C1041       C  0.75116870  0.03733456  0.06677147    -0.11500
C1042       C  0.77619721  0.05305895  0.04402050     0.05500
C1043       C  0.77530322  0.08998967  0.03908445    -0.06800
C1044       C  0.75013551  0.11057234  0.05733170    -0.07500
C1045       C  0.72525971  0.09493226  0.08029291    -0.02000
C1046       C  0.72603687  0.05794926  0.08512233     0.04800
N1047       N  0.70352564  0.04137574  0.11061736     0.67300
H1048       H  0.75148476  0.00878727  0.07058899     0.16200
H1049       H  0.75033322  0.13917288  0.05398870     0.15900
N1050       N  0.79896790  0.10673535  0.01477178     0.75000
O1051       O  0.67832701  0.02216612  0.10059864    -0.38500
O1052       O  0.71178815  0.04193305  0.14283207    -0.38400
O1053       O  0.79264496  0.10591447  0.98213390    -0.39100
O1054       O  0.82437497  0.12495447  0.02604570    -0.39200
C1055       C  0.76354002  0.93264224  0.90075348    -0.11500
C1056       C  0.73294545  0.91717225  0.91551176     0.05500
C1057       C  0.72592013  0.92189207  0.95156413    -0.06800
C1058       C  0.74937047  0.94163565  0.97209681    -0.07500
C1059       C  0.77978853  0.95769247  0.95729136    -0.02000
C1060       C  0.78657258  0.95316949  0.92100787     0.04800
N1061       N  0.81575643  0.97034950  0.90402887     0.67300
H1062       H  0.76954425  0.92881398  0.87295649     0.16200
H1063       H  0.74373716  0.94442455  0.00007817     0.15900
N1064       N  0.69637720  0.90501612  0.96808903     0.75000
O1065       O  0.83909601  0.95216170  0.88808474    -0.38500
O1066       O  0.81576796  0.00368962  0.90107586    -0.38400
O1067       O  0.69946295  0.87351171  0.97912979    -0.39100
O1068       O  0.66863862  0.92276912  0.97517410    -0.39200
C1069       C  0.27322961  0.92332831  0.05919736    -0.11500
C1070       C  0.26767243  0.92437068  0.09570663     0.05500
C1071       C  0.23796840  0.94389693  0.10893342    -0.06800
C1072       C  0.21422455  0.96072670  0.08552089    -0.07500
C1073       C  0.21937061  0.95929463  0.04898845    -0.02000
C1074       C  0.24926916  0.93999537  0.03567225     0.04800
N1075       N  0.25482838  0.93576217  0.99839038     0.75700
H1076       H  0.29505934  0.90736793  0.04874892     0.16200
H1077       H  0.19219474  0.97633100  0.09609254     0.15900
N1078       N  0.23180534  0.94724568  0.14619856     0.75000
O1079       O  0.28598264  0.93473604  0.98588558    -0.38500
O1080       O  0.22891028  0.92982094  0.97830515    -0.38400
O1081       O  0.25719657  0.95409677  0.16663831    -0.39100
O1082       O  0.20055435  0.94623558  0.15841194    -0.39200
C1083       C  0.23986769  0.03154796  0.93140207    -0.11500
C1084       C  0.21482821  0.04850286  0.95335485     0.05500
C1085       C  0.21378113  0.08577863  0.95431649    -0.06800
C1086       C  0.23805373  0.10533459  0.93407572    -0.07500
C1087       C  0.26368484  0.08839237  0.91261830    -0.02000
C1088       C  0.26441280  0.05089110  0.91128196     0.04800
N1089       N  0.29070858  0.03200605  0.89092656     0.67300
H1090       H  0.24127434  0.00277137  0.93108912     0.16200
H1091       H  0.23658934  0.13408606  0.93489298     0.15900
N1092       N  0.18913739  0.10405201  0.97673149     0.75000
O1093       O  0.32296896  0.04072211  0.89233228    -0.38500
O1094       O  0.28251095  0.00397944  0.87502747    -0.38400
O1095       O  0.19560943  0.10706157  0.00919076    -0.39100
O1096       O  0.16226925  0.11950159  0.96366069    -0.39200
C1097       C  0.58434969  0.05722007  0.22604879    -0.11500
C1098       C  0.57907421  0.09390446  0.22864752     0.05500
C1099       C  0.55900583  0.10737759  0.25744081    -0.06800
C1100       C  0.54490392  0.08424872  0.28289775    -0.07500
C1101       C  0.55011644  0.04756263  0.28032203    -0.02000
C1102       C  0.57058828  0.03401503  0.25175892     0.04800
N1103       N  0.57808900  0.99672317  0.24902389     0.67300
H1104       H  0.60121595  0.04670551  0.20520344     0.16200
H1105       H  0.52827913  0.09491336  0.30385983     0.15900
N1106       N  0.55241472  0.14468748  0.26081866     0.75000
O1107       O  0.57752401  0.98172591  0.21937010    -0.38500
O1108       O  0.58748996  0.97912223  0.27591119    -0.38400
O1109       O  0.53694725  0.16162003  0.23637647    -0.39100
O1110       O  0.56009350  0.16035064  0.28904874    -0.39200
C1111       C  0.47053972  0.94109642  0.24743083    -0.11500
C1112       C  0.45672566  0.95820234  0.27761372     0.05500
C1113       C  0.41979188  0.95745743  0.28374058    -0.06800
C1114       C  0.39791068  0.93897338  0.26057126    -0.07500
C1115       C  0.41164730  0.92175879  0.23049565    -0.02000
C1116       C  0.44844970  0.92343631  0.22361383     0.04800
N1117       N  0.46403345  0.90599126  0.19374252     0.67300
H1118       H  0.49895758  0.94162790  0.24218273     0.16200
H1119       H  0.36962575  0.93766179  0.26639144     0.15900
N1120       N  0.40397757  0.97565745  0.31300167     0.75000
O1121       O  0.45426257  0.91450245  0.16300404    -0.38500
O1122       O  0.49126435  0.88648658  0.19766548    -0.38400
O1123       O  0.40824795  0.00856354  0.31665204    -0.39100
O1124       O  0.38339106  0.95940150  0.33366592    -0.39200
C1125       C  0.53203147  0.75136312  0.93785646    -0.11500
C1126       C  0.54700830  0.72523000  0.96009386     0.05500
C1127       C  0.58418063  0.72348747  0.96426446    -0.06800
C1128       C  0.60553608  0.74698901  0.94507916    -0.07500
C1129       C  0.59065166  0.77276553  0.92236950    -0.02000
C1130       C  0.55337359  0.77477659  0.91847138     0.04800
N1131       N  0.53693177  0.79841927  0.89333358     0.67300
H1132       H  0.50334159  0.75274983  0.93474851     0.16200
H1133       H  0.63425666  0.74497333  0.94764077     0.15900
N1134       N  0.60050363  0.69876111  0.98836584     0.75000
O1135       O  0.54871679  0.80031698  0.86216744    -0.38500
O1136       O  0.50760179  0.81332924  0.90062343    -0.38400
O1137       O  0.62880384  0.68260980  0.97979021    -0.39100
O1138       O  0.58892744  0.69585082  0.01953040    -0.39200
C1139       C  0.42533330  0.73703725  0.10497912    -0.11500
C1140       C  0.41095107  0.76927712  0.09198254     0.05500
C1141       C  0.41640177  0.77801667  0.05619606    -0.06800
C1142       C  0.43608066  0.75463929  0.03467531    -0.07500
C1143       C  0.45105444  0.72262442  0.04780465    -0.02000
C1144       C  0.44562969  0.71400418  0.08369654     0.04800
N1145       N  0.46169607  0.68305498  0.09947715     0.67300
H1146       H  0.42137471  0.72997405  0.13251173     0.16200
H1147       H  0.43942391  0.76145204  0.00701027     0.15900
N1148       N  0.40102385  0.80948100  0.04082107     0.75000
O1149       O  0.49446617  0.67669717  0.09527037    -0.38500
O1150       O  0.44439100  0.66480917  0.12148436    -0.38400
O1151       O  0.41896048  0.82790867  0.01948616    -0.39100
O1152       O  0.36826877  0.81618447  0.04459964    -0.39200
C1153       C  0.56824588  0.25972437  0.02118343    -0.11500
C1154       C  0.54193861  0.28243683  0.03534619     0.05500
C1155       C  0.53205496  0.27826825  0.07103747    -0.06800
C1156       C  0.54972540  0.25298172  0.09211267    -0.07500
C1157       C  0.57719471  0.23154418  0.07840811    -0.02000
C1158       C  0.58630762  0.23483291  0.04249344     0.04800
N1159       N  0.61521452  0.21467008  0.02788806     0.67300
H1160       H  0.57530653  0.26192483  0.99348693     0.16200
H1161       H  0.54307481  0.25120514  0.11994419     0.15900
N1162       N  0.50371690  0.29893886  0.08609778     0.75000
O1163       O  0.60963455  0.19319109  0.00320357    -0.38500
O1164       O  0.64673456  0.22112027  0.03690517    -0.38400
O1165       O  0.47803338  0.28362393  0.10101006    -0.39100
O1166       O  0.50704388  0.33197244  0.08953177    -0.39200
C1167       C  0.46977562  0.27182332  0.91105190    -0.11500
C1168       C  0.45448017  0.28936625  0.93996524     0.05500
C1169       C  0.41970693  0.28071848  0.95063910    -0.06800
C1170       C  0.40121913  0.25439688  0.93254822    -0.07500
C1171       C  0.41638420  0.23652934  0.90350847    -0.02000
C1172       C  0.45125400  0.24564088  0.89280930     0.04800
N1173       N  0.46881523  0.22782273  0.86432922     0.67300
H1174       H  0.49706416  0.27732729  0.90364834     0.16200
H1175       H  0.37431290  0.24855368  0.94091303     0.15900
N1176       N  0.40320590  0.29774151  0.98035569     0.75000
O1177       O  0.47895863  0.24518513  0.83766011    -0.38500
O1178       O  0.47792296  0.19566168  0.86763269    -0.38400
O1179       O  0.40282473  0.33111050  0.98257917    -0.39100
O1180       O  0.38564188  0.27977972  0.00238014    -0.39200
C1181       C  0.05061323  0.79404379  0.07401731    -0.11500
C1182       C  0.05556816  0.79218245  0.03748982     0.05500
C1183       C  0.07991005  0.76694034  0.02349825    -0.06800
C1184       C  0.09812690  0.74379983  0.04646331    -0.07500
C1185       C  0.09281137  0.74531852  0.08305829    -0.02000
C1186       C  0.06908314  0.77121911  0.09693105     0.04800
N1187       N  0.06426979  0.77555145  0.13418349     0.67300
H1188       H  0.03173095  0.81316599  0.08485670     0.16200
H1189       H  0.11681278  0.72450260  0.03561975     0.15900
N1190       N  0.08635860  0.76452577  0.98618595     0.75000
O1191       O  0.09043844  0.78323111  0.15330143    -0.38500
O1192       O  0.03330277  0.77690851  0.14709404    -0.38400
O1193       O  0.08893436  0.79225189  0.96758672    -0.39100
O1194       O  0.09196734  0.73472083  0.97210730    -0.39200
C1195       C  0.94446068  0.76421590  0.89186522    -0.11500
C1196       C  0.92517699  0.73714897  0.90872270     0.05500
C1197       C  0.92342225  0.73665423  0.94597489    -0.06800
C1198       C  0.94102020  0.76268861  0.96523444    -0.07500
C1199       C  0.96104654  0.78912607  0.94846512    -0.02000
C1200       C  0.96256253  0.79001902  0.91127823     0.04800
N1201       N  0.98292050  0.81624624  0.89289146     0.67300
H1202       H  0.94528907  0.76548583  0.86326940     0.16200
H1203       H  0.94024520  0.76147682  0.99384663     0.15900
N1204       N  0.90487837  0.70931769  0.96470302     0.75000
O1205       O  0.01503955  0.82116497  0.90082020    -0.38500
O1206       O  0.96986500  0.83215407  0.86647834    -0.38400
O1207       O  0.91070499  0.67713899  0.95747024    -0.39100
O1208       O  0.88552429  0.71705347  0.99088808    -0.39200
C1209       C  0.92498294  0.52246709  0.73631532    -0.11500
C1210       C  0.94840214  0.53681380  0.71123978     0.05500
C1211       C  0.95349650  0.57372452  0.71039319    -0.06800
C1212       C  0.93650540  0.59532495  0.73544531    -0.07500
C1213       C  0.91403451  0.58086902  0.76142373    -0.02000
C1214       C  0.90768407  0.54404904  0.76114159     0.04800
N1215       N  0.88470093  0.52799178  0.78658627     0.67300
H1216       H  0.92103956  0.49401964  0.73734927     0.16200
H1217       H  0.94074022  0.62372033  0.73436107     0.15900
N1218       N  0.97678866  0.58948081  0.68505847     0.75000
O1219       O  0.85652400  0.51325294  0.77673049    -0.38500
O1220       O  0.89413651  0.52566287  0.81842133    -0.38400
O1221       O  0.96423057  0.60917951  0.66101880    -0.39100
O1222       O  0.01002953  0.58653027  0.68867649    -0.39200
C1223       C  0.09896479  0.43380965  0.74106231    -0.11500
C1224       C  0.08450498  0.40605447  0.76141802     0.05500
C1225       C  0.04823065  0.39769356  0.75664708    -0.06800
C1226       C  0.02761352  0.41696929  0.73231822    -0.07500
C1227       C  0.04207069  0.44484195  0.71257753    -0.02000
C1228       C  0.07810023  0.45347647  0.71711698     0.04800
N1229       N  0.09353547  0.48279534  0.69857007     0.67300
H1230       H  0.12674669  0.44060419  0.74391348     0.16200
H1231       H  0.99965322  0.41077512  0.72950688     0.15900
N1232       N  0.03157013  0.37032158  0.77678906     0.75000
O1233       O  0.07907233  0.51313976  0.69994406    -0.38500
O1234       O  0.12360916  0.47930683  0.68403096    -0.38400
O1235       O  0.02528207  0.37490904  0.80916596    -0.39100
O1236       O  0.01904754  0.34369546  0.76140112    -0.39200
C1237       C  0.95234365  0.28366462  0.08875064    -0.11500
C1238       C  0.91554849  0.27919484  0.08607363     0.05500
C1239       C  0.90266013  0.24971236  0.06710447    -0.06800
C1240       C  0.92664111  0.22502120  0.05246477    -0.07500
C1241       C  0.96344965  0.22885258  0.05571528    -0.02000
C1242       C  0.97648876  0.25871684  0.07427823     0.04800
N1243       N  0.01392227  0.26320778  0.08019699     0.67300
H1244       H  0.96236116  0.30529686  0.10450006     0.16200
H1245       H  0.91635831  0.20311117  0.03727638     0.15900
N1246       N  0.86514036  0.24447657  0.06257185     0.75000
O1247       O  0.02673910  0.29392312  0.08190651    -0.38500
O1248       O  0.03361302  0.23678238  0.08726739    -0.38400
O1249       O  0.84465733  0.27055641  0.05649457    -0.39100
O1250       O  0.85275607  0.21353172  0.06192058    -0.39200
C1251       C  0.10341504  0.26232686  0.95594019    -0.11500
C1252       C  0.09567283  0.26212182  0.91973764     0.05500
C1253       C  0.07000380  0.23812338  0.90718136    -0.06800
C1254       C  0.05193373  0.21617954  0.93094992    -0.07500
C1255       C  0.05918965  0.21694028  0.96708119    -0.02000
C1256       C  0.08564007  0.23996191  0.97978030     0.04800
N1257       N  0.09468813  0.24086537  0.01661196     0.67300
H1258       H  0.12367447  0.27995539  0.96576115     0.16200
H1259       H  0.03145876  0.19876153  0.92114903     0.15900
N1260       N  0.06266757  0.23483562  0.87031808     0.75000
O1261       O  0.09478602  0.21277757  0.03488705    -0.38500
O1262       O  0.10565462  0.26912882  0.03026242    -0.38400
O1263       O  0.08661114  0.22361544  0.84965053    -0.39100
O1264       O  0.03114028  0.23801336  0.85935471    -0.39200
C1265       C  0.10085112  0.57118394  0.25921959    -0.11500
C1266       C  0.08514357  0.59746377  0.23754135     0.05500
C1267       C  0.04829426  0.60458976  0.24124561    -0.06800
C1268       C  0.02808664  0.58490794  0.26526175    -0.07500
C1269       C  0.04374826  0.55813731  0.28602385    -0.02000
C1270       C  0.08050449  0.55156132  0.28321484     0.04800
N1271       N  0.09712578  0.52378378  0.30322989     0.67300
H1272       H  0.12918666  0.56561763  0.25750732     0.16200
H1273       H  0.99957506  0.58962367  0.26677396     0.15900
N1274       N  0.03066224  0.63076404  0.21998605     0.75000
O1275       O  0.09455533  0.49201009  0.29345494    -0.38500
O1276       O  0.11668529  0.53121630  0.32903772    -0.38400
O1277       O  0.02100028  0.62315775  0.18914722    -0.39100
O1278       O  0.02067231  0.65971468  0.23351697    -0.39200
C1279       C  0.93592166  0.47945055  0.24883801    -0.11500
C1280       C  0.95524973  0.46388285  0.27689702     0.05500
C1281       C  0.95516973  0.42669876  0.28093266    -0.06800
C1282       C  0.93481051  0.40636559  0.25802517    -0.07500
C1283       C  0.91493910  0.42187566  0.23048244    -0.02000
C1284       C  0.91554170  0.45896578  0.22573490     0.04800
N1285       N  0.89422010  0.47639689  0.19930153     0.67300
H1286       H  0.93566524  0.50810481  0.24565701     0.16200
H1287       H  0.93451989  0.37775750  0.26172773     0.15900
N1288       N  0.97634624  0.40905528  0.30730473     0.75000
O1289       O  0.86214517  0.46796080  0.19510560    -0.38500
O1290       O  0.90599862  0.50321587  0.18321335    -0.38400
O1291       O  0.96370414  0.38344468  0.32465546    -0.39100
O1292       O  0.00887564  0.41621223  0.31043310    -0.39200
C1293       C  0.23383375  0.55314920  0.08990407    -0.11500
C1294       C  0.23681453  0.59011600  0.08737033     0.05500
C1295       C  0.26364148  0.60431857  0.06530014    -0.06800
C1296       C  0.28602762  0.58172961  0.04590741    -0.07500
C1297       C  0.28248279  0.54486379  0.04773080    -0.02000
C1298       C  0.25634093  0.53032558  0.07051875     0.04800
N1299       N  0.25290141  0.49262574  0.07491757     0.67300
H1300       H  0.21407982  0.54189373  0.10752374     0.16200
H1301       H  0.30585629  0.59321633  0.02849923     0.15900
N1302       N  0.26940735  0.64165333  0.06317957     0.75000
O1303       O  0.28022120  0.47288152  0.07609214    -0.38500
O1304       O  0.22289731  0.47940243  0.08145061    -0.38400
O1305       O  0.29406174  0.65524834  0.08083565    -0.39100
O1306       O  0.25392818  0.65983755  0.03964851    -0.39200
C1307       C  0.23820376  0.40945091  0.94501357    -0.11500
C1308       C  0.23662036  0.41575926  0.90848030     0.05500
C1309       C  0.25788868  0.44299400  0.89393666    -0.06800
C1310       C  0.28018043  0.46268800  0.91586122    -0.07500
C1311       C  0.28208810  0.45579670  0.95217589    -0.02000
C1312       C  0.26068588  0.42887919  0.96693814     0.04800
N1313       N  0.26200254  0.42045939  0.00395063     0.67300
H1314       H  0.22236007  0.38852307  0.95662905     0.16200
H1315       H  0.29606469  0.48370895  0.90443338     0.15900
N1316       N  0.25816102  0.45028806  0.85687903     0.75000
O1317       O  0.23430539  0.41061515  0.01996784    -0.38500
O1318       O  0.29140508  0.41928709  0.01988190    -0.38400
O1319       O  0.24732952  0.48003144  0.84557773    -0.39100
O1320       O  0.27394201  0.42926065  0.83612928    -0.39200
C1321       C  0.73902162  0.57793493  0.96884979    -0.11500
C1322       C  0.71815063  0.55251522  0.95207183     0.05500
C1323       C  0.72173033  0.54755698  0.91547506    -0.06800
C1324       C  0.74642492  0.56773461  0.89652675    -0.07500
C1325       C  0.76818573  0.59265205  0.91332935    -0.02000
C1326       C  0.76364972  0.59815266  0.94989727     0.04800
N1327       N  0.78427520  0.62352792  0.96838309     0.67300
H1328       H  0.73665644  0.58156652  0.99714440     0.16200
H1329       H  0.74881410  0.56347721  0.86834328     0.15900
N1330       N  0.70169670  0.52115836  0.89746377     0.75000
O1331       O  0.77194927  0.65441400  0.97306888    -0.38500
O1332       O  0.81166857  0.61349777  0.98495195    -0.38400
O1333       O  0.68599518  0.52890686  0.86903683    -0.39100
O1334       O  0.70283536  0.48927827  0.90775459    -0.39200
C1335       C  0.71607806  0.46259799  0.07804840    -0.11500
C1336       C  0.71992830  0.45828890  0.04162271     0.05500
C1337       C  0.74938339  0.43820801  0.02866726    -0.06800
C1338       C  0.77406206  0.42316385  0.05249746    -0.07500
C1339       C  0.76985560  0.42710793  0.08898536    -0.02000
C1340       C  0.74072579  0.44769706  0.10182997     0.04800
N1341       N  0.73616193  0.45409405  0.13897145     0.67300
H1342       H  0.69450217  0.47923808  0.08802586     0.16200
H1343       H  0.79547286  0.40630990  0.04252737     0.15900
N1344       N  0.75400075  0.43210625  0.99151408     0.75000
O1345       O  0.76285884  0.45864808  0.15843896    -0.38500
O1346       O  0.70541054  0.45846228  0.15183567    -0.38400
O1347       O  0.78483440  0.42946293  0.97843163    -0.39100
O1348       O  0.72744014  0.42654237  0.97215016    -0.39200
loop_ 
_geom_bond_atom_site_label_1 
_geom_bond_atom_site_label_2 
_geom_bond_distance 
_geom_bond_site_symmetry_2 
_ccdc_geom_bond_type 
Zn1           O5   1.985       .  S
Zn1           O6   2.042       .  S
Zn1          O10   2.055       .  S
Zn1          O17   2.055       .  S
Zn2           O5   1.994       .  S
Zn2           O7   2.090       .  S
Zn2           O9   2.085       .  S
Zn2          O13   2.079       .  S
Zn3           O5   1.991   1_554  S
Zn3           O8   2.052       .  S
Zn3          O11   2.060       .  S
Zn3          O14   2.044       .  S
Zn4           O5   1.996   1_554  S
Zn4          O12   2.044       .  S
Zn4          O15   2.054       .  S
Zn4          O16   2.061       .  S
O6           C18   1.278       .  A
O7           C19   1.283       .  A
O8           C20   1.278   1_554  A
O9           C18   1.283       .  A
O10          C20   1.278       .  A
O11          C19   1.278   1_554  A
O12          C21   1.278       .  A
O13          C22   1.283       .  A
O14          C21   1.278       .  A
O15          C22   1.278   1_554  A
O16          C23   1.278   1_554  A
O17          C23   1.278       .  A
C18         C480   1.504       .  S
C19         C250   1.510       .  S
C20         C106   1.500       .  S
C21         C389   1.495       .  S
C22          C97   1.506       .  S
C23         C241   1.503       .  S
Zn24         O28   1.999       .  S
Zn24         O29   2.057       .  S
Zn24         O33   2.064       .  S
Zn24         O40   2.084       .  S
Zn25         O28   1.995   1_545  S
Zn25         O30   2.071       .  S
Zn25         O32   2.055       .  S
Zn25         O36   2.051       .  S
Zn26         O28   1.996       .  S
Zn26         O31   2.064       .  S
Zn26         O34   2.084       .  S
Zn26         O37   2.074       .  S
Zn27         O28   1.986   1_545  S
Zn27         O35   2.049       .  S
Zn27         O38   2.053       .  S
Zn27         O39   2.058       .  S
O29          C41   1.280       .  A
O30          C42   1.279   1_545  A
O31          C43   1.280       .  A
O32          C41   1.279   1_545  A
O33          C43   1.281       .  A
O34          C42   1.282       .  A
O35          C44   1.278   1_545  A
O36          C45   1.278       .  A
O37          C44   1.281       .  A
O38          C45   1.278       .  A
O39          C46   1.279   1_545  A
O40          C46   1.280       .  A
C41         C542   1.500       .  S
C42         C259   1.512       .  S
C43         C439   1.504       .  S
C44         C533   1.503       .  S
C45         C430   1.499       .  S
C46         C309   1.510       .  S
Zn47         O51   1.985   1_455  S
Zn47         O52   2.048       .  S
Zn47         O56   2.037       .  S
Zn47         O63   2.038       .  S
Zn48         O51   1.988   1_455  S
Zn48         O53   2.058       .  S
Zn48         O55   2.056       .  S
Zn48         O59   2.055       .  S
Zn49         O51   1.985       .  S
Zn49         O54   2.060       .  S
Zn49         O57   2.057       .  S
Zn49         O60   2.049       .  S
Zn50         O51   1.988       .  S
Zn50         O58   2.045       .  S
Zn50         O61   2.053       .  S
Zn50         O62   2.046       .  S
O52          C64   1.277       .  A
O53          C65   1.278   1_455  A
O54          C66   1.278       .  A
O55          C64   1.277       .  A
O56          C66   1.274   1_455  A
O57          C65   1.278       .  A
O58          C67   1.276       .  A
O59          C68   1.277   1_455  A
O60          C67   1.277       .  A
O61          C68   1.277       .  A
O62          C69   1.276       .  A
O63          C69   1.275   1_455  A
C64         C471   1.484       .  S
C65         C553   1.486       .  S
C66         C131   1.482       .  S
C67         C396   1.481       .  S
C68         C113   1.484       .  S
C69         C571   1.478   1_655  S
Zn70         O74   1.992   1_466  S
Zn70         O75   2.042       .  S
Zn70         O79   2.063       .  S
Zn70         O86   2.041       .  S
Zn71         O74   1.996   1_565  S
Zn71         O76   2.077       .  S
Zn71         O78   2.062       .  S
Zn71         O82   2.076       .  S
Zn72         O74   1.996   1_455  S
Zn72         O77   2.074       .  S
Zn72         O80   2.056       .  S
Zn72         O83   2.062       .  S
Zn73         O74   1.997   1_556  S
Zn73         O81   2.074       .  S
Zn73         O84   2.072       .  S
Zn73         O85   2.064       .  S
O75          C87   1.275       .  A
O76          C88   1.281       .  A
O77          C89   1.279       .  A
O78          C87   1.278   1_654  A
O79          C89   1.278   1_566  A
O80          C88   1.278   1_445  A
O81          C90   1.280   1_656  A
O82          C91   1.279   1_565  A
O83          C90   1.279       .  A
O84          C91   1.279   1_556  A
O85          C92   1.278       .  A
O86          C92   1.276   1_465  A
C87         C165   1.483       .  S
C88         C562   1.491       .  S
C89         C268   1.494       .  S
C90         C122   1.492       .  S
C91         C279   1.497       .  S
C92         C624   1.484       .  S
C93        C1336   1.491       .  S
C93          C94   1.393   1_554  A
C93          C98   1.417       .  A
C94          C95   1.391       .  A
C94          H99   1.086       .  S
C95        C1322   1.477       .  S
C95          C96   1.407       .  A
C96          C97   1.415       .  A
C96         H100   1.083       .  S
C97          C98   1.423   1_556  A
C98         H101   1.082       .  S
C102       C1297   1.489       .  S
C102        C103   1.398   1_554  A
C102        C107   1.410       .  A
C103        C104   1.398       .  A
C103        H108   1.085   1_556  S
C104       C1311   1.485       .  S
C104        C105   1.410       .  A
C105        C106   1.416       .  A
C105        H109   1.083       .  S
C106        C107   1.415   1_556  A
C107        H110   1.083       .  S
C111       C1269   1.476       .  S
C111        C112   1.407       .  A
C111        C116   1.394   1_455  A
C112        C113   1.410   1_455  A
C112        H117   1.084       .  S
C113        C114   1.411       .  A
C114        C115   1.414       .  A
C114        H118   1.084       .  S
C115       C1280   1.489       .  S
C115        C116   1.395       .  A
C116        H119   1.084   1_655  S
C120       C1241   1.497       .  S
C120        C121   1.420       .  A
C120        C125   1.398   1_655  A
C121        C122   1.416   1_655  A
C121        H126   1.083       .  S
C122        C123   1.409   1_554  A
C123        C124   1.407       .  A
C123        H127   1.084       .  S
C124       C1255   1.480       .  S
C124        C125   1.395   1_556  A
C125        H128   1.085       .  S
C129       C1210   1.482       .  S
C129        C130   1.409       .  A
C129        C134   1.397       .  A
C130        C131   1.412       .  A
C130        H135   1.084       .  S
C131        C132   1.410   1_655  A
C132        C133   1.408       .  A
C132        H136   1.084       .  S
C133       C1227   1.479       .  S
C133        C134   1.395   1_455  A
C134        H137   1.085       .  S
Zn138       O142   1.931       .  S
Zn138       O143   2.062       .  S
Zn138       O147   2.030       .  S
Zn138       O154   2.029       .  S
Zn139       O142   1.844       .  S
Zn139       O144   1.955       .  S
Zn139       O146   1.954       .  S
Zn139       O150   1.961       .  S
Zn140       O142   1.927       .  S
Zn140       O145   2.023       .  S
Zn140       O148   2.063       .  S
Zn140       O151   2.036       .  S
Zn141       O142   1.927       .  S
Zn141       O149   2.036       .  S
Zn141       O152   2.055       .  S
Zn141       O153   2.047       .  S
O143        C155   1.273       .  A
O144        C156   1.265       .  A
O145        C157   1.280       .  A
O146        C155   1.262       .  A
O147        C157   1.280       .  A
O148        C156   1.272       .  A
O149        C158   1.282       .  A
O150        C159   1.268       .  A
O151        C158   1.281       .  A
O152        C159   1.274       .  A
O153        C160   1.281       .  A
O154        C160   1.281       .  A
C155        C334   1.460       .  S
C156        C671   1.459       .  S
C157       C1252   1.486       .  S
C158       C1224   1.494       .  S
C159        C502   1.462       .  S
C160       C1308   1.493       .  S
C161       C1182   1.480       .  S
C161        C162   1.394   1_554  A
C161        C166   1.406       .  A
C162        C163   1.396   1_455  A
C162        H167   1.085       .  S
C163       C1199   1.486       .  S
C163        C164   1.413       .  A
C164        C165   1.415   1_655  A
C164        H168   1.083       .  S
C165        C166   1.408   1_556  A
C166        H169   1.083       .  S
Zn170       O174   1.854       .  S
Zn170       O175   1.977       .  S
Zn170       O179   1.957       .  S
Zn170       O186   1.969       .  S
Zn171       O174   1.913       .  S
Zn171       O176   2.020       .  S
Zn171       O178   2.039       .  S
Zn171       O182   2.004       .  S
Zn172       O174   1.926       .  S
Zn172       O177   2.044       .  S
Zn172       O180   2.038       .  S
Zn172       O183   2.055       .  S
Zn173       O174   1.920       .  S
Zn173       O181   2.014       .  S
Zn173       O184   2.040       .  S
Zn173       O185   2.029       .  S
O175        C187   1.264       .  A
O176        C188   1.279       .  A
O177        C189   1.271       .  A
O178        C187   1.270       .  A
O179        C189   1.265       .  A
O180        C188   1.283       .  A
O181        C190   1.279       .  A
O182        C191   1.277       .  A
O183        C190   1.283       .  A
O184        C191   1.280       .  A
O185        C192   1.271       .  A
O186        C192   1.267       .  A
C187        C528   1.455       .  S
C188       C1213   1.484       .  S
C189        C652   1.450       .  S
C190       C1196   1.487       .  S
C191       C1325   1.489       .  S
C192        C301   1.450       .  S
Zn193       O197   1.983       .  S
Zn193       O198   2.107       .  S
Zn193       O202   2.122       .  S
Zn193       O209   2.125       .  S
Zn194       O197   1.938       .  S
Zn194       O199   1.985       .  S
Zn194       O201   1.933       .  S
Zn194       O205   1.981       .  S
Zn195       O197   1.950       .  S
Zn195       O200   1.943       .  S
Zn195       O203   2.009       .  S
Zn195       O206   1.996       .  S
Zn196       O197   1.930       .  S
Zn196       O204   1.969       .  S
Zn196       O207   1.996       .  S
Zn196       O208   1.942       .  S
O198        C210   1.287       .  A
O199        C211   1.266       .  A
O200        C212   1.266       .  A
O201        C210   1.267       .  A
O202        C212   1.287       .  A
O203        C211   1.268       .  A
O204        C213   1.267       .  A
O205        C214   1.265       .  A
O206        C213   1.269       .  A
O207        C214   1.269       .  A
O208        C215   1.265       .  A
O209        C215   1.287       .  A
C210       C1283   1.477       .  S
C211        C425   1.454       .  S
C212       C1339   1.486       .  S
C213        C380   1.452       .  S
C214        C616   1.456       .  S
C215       C1238   1.486       .  S
Zn216       O220   1.913       .  S
Zn216       O221   2.029       .  S
Zn216       O225   2.042       .  S
Zn216       O232   2.052       .  S
Zn217       O220   1.923       .  S
Zn217       O222   2.063       .  S
Zn217       O224   2.024       .  S
Zn217       O228   2.018       .  S
Zn218       O220   1.847       .  S
Zn218       O223   1.972       .  S
Zn218       O226   1.948       .  S
Zn218       O229   1.967       .  S
Zn219       O220   1.918       .  S
Zn219       O227   2.040       .  S
Zn219       O230   2.028       .  S
Zn219       O231   2.014       .  S
O221        C233   1.282       .  A
O222        C234   1.272       .  A
O223        C235   1.270       .  A
O224        C233   1.280       .  A
O225        C235   1.274       .  A
O226        C234   1.263       .  A
O227        C236   1.270       .  A
O228        C237   1.280       .  A
O229        C236   1.260       .  A
O230        C237   1.280       .  A
O231        C238   1.277       .  A
O232        C238   1.282       .  A
C233       C1266   1.488       .  S
C234        C595   1.456       .  S
C235        C462   1.461       .  S
C236        C361   1.449       .  S
C237       C1185   1.481       .  S
C238       C1294   1.489       .  S
C239       C1154   1.485       .  S
C239        C240   1.414       .  A
C239        C244   1.393   1_554  A
C240        C241   1.419   1_554  A
C240        H245   1.083       .  S
C241        C242   1.416       .  A
C242        C243   1.407       .  A
C242        H246   1.083       .  S
C243       C1168   1.478       .  S
C243        C244   1.393       .  A
C244        H247   1.085       .  S
C248       C1143   1.500       .  S
C248        C249   1.420       .  A
C248        C253   1.394       .  A
C249        C250   1.425   1_554  A
C249        H254   1.083       .  S
C250        C251   1.416       .  A
C251        C252   1.410       .  A
C251        H255   1.083       .  S
C252       C1126   1.480       .  S
C252        C253   1.389   1_556  A
C253        H256   1.084       .  S
C257       C1101   1.490       .  S
C257        C258   1.416       .  A
C257        C262   1.392       .  A
C258        C259   1.424   1_545  A
C258        H263   1.082       .  S
C259        C260   1.419       .  A
C260        C261   1.415       .  A
C260        H264   1.083       .  S
C261       C1112   1.492       .  S
C261        C262   1.391   1_565  A
C262        H265   1.085       .  S
C266       C1073   1.497       .  S
C266        C267   1.417       .  A
C266        C271   1.397   1_565  A
C267        C268   1.417   1_565  A
C267        H272   1.083       .  S
C268        C269   1.413   1_554  A
C269        C270   1.410       .  A
C269        H273   1.084       .  S
C270       C1084   1.486       .  S
C270        C271   1.396   1_556  A
C271        H274   1.085       .  S
C275       C1042   1.480       .  S
C275        C276   1.389   1_554  A
C275        C280   1.411       .  A
C276        C277   1.393   1_545  A
C276        H281   1.084       .  S
C277       C1059   1.495       .  S
C277        C278   1.419       .  A
C278        C279   1.420   1_566  A
C278        H282   1.084       .  S
C279        C280   1.413       .  A
C280        H283   1.084       .  S
Zn284       O288   1.919       .  S
Zn284       O289   1.972       .  S
Zn284       O293   1.976       .  S
Zn284       O300   1.932       .  S
Zn285       O288   1.928       .  S
Zn285       O290   1.983       .  S
Zn285       O292   2.007       .  S
Zn285       O296   1.935       .  S
Zn286       O288   1.915       .  S
Zn286       O291   1.992       .  S
Zn286       O294   1.999       .  S
Zn286       O297   1.941       .  S
Zn287       O288   1.958       .  S
Zn287       O295   2.128       .  S
Zn287       O298   2.119       .  S
Zn287       O299   2.105       .  S
O289        C301   1.265       .  A
O290        C302   1.269       .  A
O291        C303   1.271       .  A
O292        C301   1.267       .  A
O293        C303   1.265       .  A
O294        C302   1.269       .  A
O295        C304   1.288       .  A
O296        C305   1.265       .  A
O297        C304   1.265       .  A
O298        C305   1.288       .  A
O299        C306   1.288       .  A
O300        C306   1.267       .  A
C302        C651   1.449       .  S
C303        C526   1.448       .  S
C304       C1028   1.486       .  S
C305       C1056   1.480       .  S
C306       C1129   1.472       .  S
C307       C1031   1.499       .  S
C307        C308   1.422       .  A
C307        C312   1.394       .  A
C308        C309   1.423       .  A
C308        H313   1.083       .  S
C309        C310   1.417   1_565  A
C310        C311   1.408       .  A
C310        H314   1.083       .  S
C311       C1014   1.484       .  S
C311        C312   1.393   1_545  A
C312        H315   1.084       .  S
Zn316       O320   1.930       .  S
Zn316       O321   2.035       .  S
Zn316       O325   2.050       .  S
Zn316       O332   2.017       .  S
Zn317       O320   1.932       .  S
Zn317       O322   2.052       .  S
Zn317       O324   2.029       .  S
Zn317       O328   2.045       .  S
Zn318       O320   1.848       .  S
Zn318       O323   1.960       .  S
Zn318       O326   1.958       .  S
Zn318       O329   1.956       .  S
Zn319       O320   1.929       .  S
Zn319       O327   2.053       .  S
Zn319       O330   2.025       .  S
Zn319       O331   2.033       .  S
O321        C333   1.281       .  A
O322        C334   1.272       .  A
O323        C335   1.264       .  A
O324        C333   1.281       .  A
O325        C335   1.269       .  A
O326        C334   1.267       .  A
O327        C336   1.273       .  A
O328        C337   1.282       .  A
O329        C336   1.264       .  A
O330        C337   1.279       .  A
O331        C338   1.280       .  A
O332        C338   1.279       .  A
C333       C1171   1.494       .  S
C335        C506   1.454       .  S
C336        C676   1.460       .  S
C337       C1087   1.487       .  S
C338       C1017   1.480       .  S
Zn339       O343   1.925       .  S
Zn339       O344   2.006       .  S
Zn339       O348   1.942       .  S
Zn339       O355   1.991       .  S
Zn340       O343   1.927       .  S
Zn340       O345   1.940       .  S
Zn340       O347   1.987       .  S
Zn340       O351   1.987       .  S
Zn341       O343   1.967       .  S
Zn341       O346   2.124       .  S
Zn341       O349   2.110       .  S
Zn341       O352   2.123       .  S
Zn342       O343   1.934       .  S
Zn342       O350   1.947       .  S
Zn342       O353   2.001       .  S
Zn342       O354   1.991       .  S
O344        C356   1.270       .  A
O345        C357   1.268       .  A
O346        C358   1.289       .  A
O347        C356   1.266       .  A
O348        C358   1.266       .  A
O349        C357   1.287       .  A
O350        C359   1.266       .  A
O351        C360   1.266       .  A
O352        C359   1.288       .  A
O353        C360   1.267       .  A
O354        C361   1.270       .  A
O355        C361   1.268       .  A
C356        C464   1.449       .  S
C357       C1115   1.483       .  S
C358       C1140   1.490       .  S
C359       C1070   1.490       .  S
C360        C593   1.451       .  S
Zn362       O366   1.932       .  S
Zn362       O367   1.984       .  S
Zn362       O371   1.989       .  S
Zn362       O378   1.935       .  S
Zn363       O366   1.948       .  S
Zn363       O368   1.996       .  S
Zn363       O370   1.983       .  S
Zn363       O374   1.945       .  S
Zn364       O366   1.930       .  S
Zn364       O369   1.976       .  S
Zn364       O372   1.959       .  S
Zn364       O375   1.924       .  S
Zn365       O366   1.976       .  S
Zn365       O373   2.108       .  S
Zn365       O376   2.110       .  S
Zn365       O377   2.123       .  S
O367        C379   1.266       .  A
O368        C380   1.267       .  A
O369        C381   1.266       .  A
O370        C379   1.266       .  A
O371        C381   1.269       .  A
O372        C380   1.264       .  A
O373        C382   1.285       .  A
O374        C383   1.267       .  A
O375        C382   1.263       .  A
O376        C383   1.287       .  A
O377        C384   1.287       .  A
O378        C384   1.264       .  A
C379        C420   1.445       .  S
C381        C620   1.451       .  S
C382       C1045   1.474       .  S
C383       C1157   1.474       .  S
C384       C1098   1.483       .  S
C385       C1000   1.481       .  S
C385        C386   1.395       .  A
C385        C390   1.407       .  A
C386        C387   1.394       .  A
C386        H391   1.085       .  S
C387        C989   1.484       .  S
C387        C388   1.408       .  A
C388        C389   1.415       .  A
C388        H392   1.083       .  S
C389        C390   1.415       .  A
C390        H393   1.083       .  S
C394        C958   1.487       .  S
C394        C395   1.411       .  A
C394        C399   1.396       .  A
C395        C396   1.411       .  A
C395        H400   1.083       .  S
C396        C397   1.409       .  A
C397        C398   1.407       .  A
C397        H401   1.084       .  S
C398        C972   1.477       .  S
C398        C399   1.395       .  A
C399        H402   1.085       .  S
Zn403       O407   1.849       .  S
Zn403       O408   1.972       .  S
Zn403       O412   1.975       .  S
Zn403       O419   1.977       .  S
Zn404       O407   1.913       .  S
Zn404       O409   2.026       .  S
Zn404       O411   2.030       .  S
Zn404       O415   2.039       .  S
Zn405       O407   1.904       .  S
Zn405       O410   2.037       .  S
Zn405       O413   2.038       .  S
Zn405       O416   2.004       .  S
Zn406       O407   1.912       .  S
Zn406       O414   2.034       .  S
Zn406       O417   2.011       .  S
Zn406       O418   2.043       .  S
O408        C420   1.264       .  A
O409        C421   1.280       .  A
O410        C422   1.271       .  A
O411        C420   1.270       .  A
O412        C422   1.266       .  A
O413        C421   1.281       .  A
O414        C423   1.281       .  A
O415        C424   1.281       .  A
O416        C423   1.278       .  A
O417        C424   1.279       .  A
O418        C425   1.270       .  A
O419        C425   1.265       .  A
C421        C947   1.488       .  S
C422        C621   1.451       .  S
C423        C975   1.482       .  S
C424       C1003   1.487       .  S
C426        C944   1.484       .  S
C426        C427   1.395       .  A
C426        C431   1.409       .  A
C427        C428   1.396       .  A
C427        H432   1.085       .  S
C428        C930   1.487       .  S
C428        C429   1.410       .  A
C429        C430   1.417       .  A
C429        H433   1.083       .  S
C430        C431   1.416       .  A
C431        H434   1.083       .  S
C435        C902   1.494       .  S
C435        C436   1.396       .  A
C435        C440   1.414       .  A
C436        C437   1.396       .  A
C436        H441   1.084       .  S
C437        C916   1.486       .  S
C437        C438   1.411       .  A
C438        C439   1.417       .  A
C438        H442   1.083       .  S
C439        C440   1.416       .  A
C440        H443   1.083       .  S
Zn444       O448   1.928       .  S
Zn444       O449   2.041       .  S
Zn444       O453   2.058       .  S
Zn444       O460   2.038       .  S
Zn445       O448   1.917       .  S
Zn445       O450   2.049       .  S
Zn445       O452   2.031       .  S
Zn445       O456   2.038       .  S
Zn446       O448   1.848       .  S
Zn446       O451   1.953       .  S
Zn446       O454   1.964       .  S
Zn446       O457   1.967       .  S
Zn447       O448   1.919       .  S
Zn447       O455   2.042       .  S
Zn447       O458   2.011       .  S
Zn447       O459   2.031       .  S
O449        C461   1.283       .  A
O450        C462   1.274       .  A
O451        C463   1.266       .  A
O452        C461   1.281       .  A
O453        C463   1.272       .  A
O454        C462   1.266       .  A
O455        C464   1.269       .  A
O456        C465   1.280       .  A
O457        C464   1.263       .  A
O458        C465   1.278       .  A
O459        C466   1.281       .  A
O460        C466   1.281       .  A
C461        C891   1.484       .  S
C463        C598   1.462       .  S
C465        C986   1.486       .  S
C466        C919   1.487       .  S
C467        C888   1.487       .  S
C467        C468   1.399       .  A
C467        C472   1.411       .  A
C468        C469   1.395       .  A
C468        H473   1.085       .  S
C469        C877   1.480       .  S
C469        C470   1.408       .  A
C470        C471   1.410       .  A
C470        H474   1.083       .  S
C471        C472   1.411       .  A
C472        H475   1.084       .  S
C476        C846   1.496       .  S
C476        C477   1.399       .  A
C476        C481   1.416       .  A
C477        C478   1.396       .  A
C477        H482   1.085       .  S
C478        C860   1.485       .  S
C478        C479   1.407       .  A
C479        C480   1.417       .  A
C479        H483   1.083       .  S
C480        C481   1.417       .  A
C481        H484   1.082       .  S
Zn485       O489   1.933       .  S
Zn485       O490   2.060       .  S
Zn485       O494   2.034       .  S
Zn485       O501   2.046       .  S
Zn486       O489   1.851       .  S
Zn486       O491   1.963       .  S
Zn486       O493   1.957       .  S
Zn486       O497   1.956       .  S
Zn487       O489   1.931       .  S
Zn487       O492   2.035       .  S
Zn487       O495   2.051       .  S
Zn487       O498   2.024       .  S
Zn488       O489   1.932       .  S
Zn488       O496   2.047       .  S
Zn488       O499   2.054       .  S
Zn488       O500   2.024       .  S
O490        C502   1.274       .  A
O491        C503   1.268       .  A
O492        C504   1.281       .  A
O493        C502   1.264       .  A
O494        C504   1.280       .  A
O495        C503   1.272       .  A
O496        C505   1.283       .  A
O497        C506   1.264       .  A
O498        C505   1.279       .  A
O499        C506   1.271       .  A
O500        C507   1.279       .  A
O501        C507   1.282       .  A
C503        C673   1.462       .  S
C504        C874   1.497       .  S
C505        C933   1.489       .  S
C507        C863   1.496       .  S
Zn508       O512   1.967       .  S
Zn508       O513   2.100       .  S
Zn508       O517   2.110       .  S
Zn508       O524   2.090       .  S
Zn509       O512   1.921       .  S
Zn509       O514   1.961       .  S
Zn509       O516   1.954       .  S
Zn509       O520   1.986       .  S
Zn510       O512   1.935       .  S
Zn510       O515   1.958       .  S
Zn510       O518   2.006       .  S
Zn510       O521   2.007       .  S
Zn511       O512   1.939       .  S
Zn511       O519   1.996       .  S
Zn511       O522   2.016       .  S
Zn511       O523   1.956       .  S
O513        C525   1.285       .  A
O514        C526   1.264       .  A
O515        C527   1.268       .  A
O516        C525   1.269       .  A
O517        C527   1.286       .  A
O518        C526   1.271       .  A
O519        C528   1.269       .  A
O520        C529   1.266       .  A
O521        C528   1.269       .  A
O522        C529   1.269       .  A
O523        C530   1.269       .  A
O524        C530   1.285       .  A
C525        C905   1.483       .  S
C527        C849   1.488       .  S
C529        C653   1.456       .  S
C530        C961   1.476       .  S
C531        C818   1.486       .  S
C531        C532   1.409       .  A
C531        C536   1.397   1_545  A
C532        C533   1.418   1_545  A
C532        H537   1.083       .  S
C533        C534   1.417       .  A
C534        C535   1.412       .  A
C534        H538   1.085       .  S
C535        C832   1.490       .  S
C535        C536   1.399       .  A
C536        H539   1.083       .  S
C540        C790   1.484       .  S
C540        C541   1.408       .  A
C540        C545   1.395       .  A
C541        C542   1.414       .  A
C541        H546   1.083       .  S
C542        C543   1.417   1_565  A
C543        C544   1.416       .  A
C543        H547   1.083       .  S
C544        C804   1.498       .  S
C544        C545   1.396   1_545  A
C545        H548   1.083       .  S
C549        C776   1.494       .  S
C549        C550   1.397   1_655  A
C549        C554   1.417       .  A
C550        C551   1.394       .  A
C550        H555   1.085       .  S
C551        C762   1.474       .  S
C551        C552   1.404       .  A
C552        C553   1.408   1_455  A
C552        H556   1.084       .  S
C553        C554   1.416       .  A
C554        H557   1.083       .  S
C558        C734   1.491       .  S
C558        C559   1.396   1_545  A
C558        C563   1.415       .  A
C559        C560   1.394   1_655  A
C559        H564   1.085       .  S
C560        C751   1.480       .  S
C560        C561   1.410       .  A
C561        C562   1.413   1_455  A
C561        H565   1.084       .  S
C562        C563   1.415   1_565  A
C563        H566   1.083       .  S
C567        C720   1.478       .  S
C567        C568   1.393   1_655  A
C567        C572   1.411       .  A
C568        C569   1.392       .  A
C568        H573   1.085       .  S
C569        C709   1.470       .  S
C569        C570   1.403       .  A
C570        C571   1.406       .  A
C570        H574   1.084       .  S
C571        C572   1.413   1_455  A
C572        H575   1.084       .  S
Zn576       O580   1.845       .  S
Zn576       O581   1.974       .  S
Zn576       O585   1.961       .  S
Zn576       O592   1.953       .  S
Zn577       O580   1.915       .  S
Zn577       O582   2.032       .  S
Zn577       O584   2.033       .  S
Zn577       O588   2.051       .  S
Zn578       O580   1.926       .  S
Zn578       O583   2.056       .  S
Zn578       O586   2.033       .  S
Zn578       O589   2.016       .  S
Zn579       O580   1.927       .  S
Zn579       O587   2.019       .  S
Zn579       O590   2.033       .  S
Zn579       O591   2.064       .  S
O581        C593   1.266       .  A
O582        C594   1.281       .  A
O583        C595   1.272       .  A
O584        C593   1.271       .  A
O585        C595   1.266       .  A
O586        C594   1.280       .  A
O587        C596   1.279       .  A
O588        C597   1.283       .  A
O589        C596   1.280       .  A
O590        C597   1.280       .  A
O591        C598   1.273       .  A
O592        C598   1.263       .  A
C594        C748   1.491       .  S
C596        C706   1.486       .  S
C597        C835   1.491       .  S
Zn599       O603   1.937       .  S
Zn599       O604   2.002       .  S
Zn599       O608   1.949       .  S
Zn599       O615   2.009       .  S
Zn600       O603   1.934       .  S
Zn600       O605   1.940       .  S
Zn600       O607   1.984       .  S
Zn600       O611   1.984       .  S
Zn601       O603   1.983       .  S
Zn601       O606   2.117       .  S
Zn601       O609   2.117       .  S
Zn601       O612   2.113       .  S
Zn602       O603   1.934       .  S
Zn602       O610   1.924       .  S
Zn602       O613   1.972       .  S
Zn602       O614   1.978       .  S
O604        C616   1.271       .  A
O605        C617   1.266       .  A
O606        C618   1.287       .  A
O607        C616   1.267       .  A
O608        C618   1.267       .  A
O609        C617   1.287       .  A
O610        C619   1.265       .  A
O611        C620   1.267       .  A
O612        C619   1.286       .  A
O613        C620   1.264       .  A
O614        C621   1.265       .  A
O615        C621   1.269       .  A
C617        C737   1.483       .  S
C618        C779   1.485       .  S
C619        C807   1.485       .  S
C622        C678   1.475       .  S
C622        C623   1.406       .  A
C622        C627   1.394   1_455  A
C623        C624   1.409   1_455  A
C623        H628   1.084       .  S
C624        C625   1.414   1_545  A
C625        C626   1.412       .  A
C625        H629   1.083       .  S
C626        C692   1.488       .  S
C626        C627   1.398   1_565  A
C627        H630   1.085       .  S
Zn631       O635   1.911       .  S
Zn631       O636   1.997       .  S
Zn631       O640   2.022       .  S
Zn631       O647   2.036       .  S
Zn632       O635   1.929       .  S
Zn632       O637   2.037       .  S
Zn632       O639   2.053       .  S
Zn632       O643   2.049       .  S
Zn633       O635   1.914       .  S
Zn633       O638   2.020       .  S
Zn633       O641   2.038       .  S
Zn633       O644   2.032       .  S
Zn634       O635   1.853       .  S
Zn634       O642   1.965       .  S
Zn634       O645   1.954       .  S
Zn634       O646   1.981       .  S
O636        C648   1.278       .  A
O637        C649   1.283       .  A
O638        C650   1.279       .  A
O639        C648   1.282       .  A
O640        C650   1.279       .  A
O641        C649   1.281       .  A
O642        C651   1.263       .  A
O643        C652   1.271       .  A
O644        C651   1.271       .  A
O645        C652   1.264       .  A
O646        C653   1.268       .  A
O647        C653   1.270       .  A
C648        C723   1.492       .  S
C649        C695   1.492       .  S
C650        C793   1.482       .  S
Zn654       O658   1.846       .  S
Zn654       O659   1.960       .  S
Zn654       O663   1.954       .  S
Zn654       O670   1.956       .  S
Zn655       O658   1.924       .  S
Zn655       O660   2.003       .  S
Zn655       O662   2.059       .  S
Zn655       O666   2.025       .  S
Zn656       O658   1.933       .  S
Zn656       O661   2.064       .  S
Zn656       O664   2.044       .  S
Zn656       O667   2.036       .  S
Zn657       O658   1.930       .  S
Zn657       O665   2.056       .  S
Zn657       O668   2.039       .  S
Zn657       O669   2.054       .  S
O659        C671   1.265       .  A
O660        C672   1.277       .  A
O661        C673   1.274       .  A
O662        C671   1.271       .  A
O663        C673   1.263       .  A
O664        C672   1.282       .  A
O665        C674   1.283       .  A
O666        C675   1.281       .  A
O667        C674   1.281       .  A
O668        C675   1.281       .  A
O669        C676   1.274       .  A
O670        C676   1.267       .  A
C672        C765   1.491       .  S
C674        C821   1.499       .  S
C675        C681   1.494       .  S
C677        C678   1.400       .  A
C677        C682   1.402       .  A
C677        H684   1.086       .  S
C678        C679   1.405       .  A
C679        C680   1.400       .  A
C679        N686   1.429   1_455  S
C680        C681   1.410       .  A
C680        H685   1.085       .  S
C681        C682   1.419       .  A
C682        N683   1.429       .  S
N683        O687   1.262       .  A
N683        O688   1.262       .  A
N686        O690   1.262       .  A
N686        O689   1.262       .  A
C691        C692   1.402       .  A
C691        C696   1.405       .  A
C691        H698   1.086       .  S
C692        C693   1.418       .  A
C693        C694   1.404       .  A
C693        N700   1.437   1_655  S
C694        C695   1.403       .  A
C694        H699   1.085       .  S
C695        C696   1.418       .  A
C696        N697   1.430       .  S
N697        O701   1.262       .  A
N697        O702   1.262       .  A
N700        O704   1.263       .  A
N700        O703   1.263       .  A
C705        C706   1.409       .  A
C705        C710   1.401       .  A
C705        H712   1.086       .  S
C706        C707   1.415       .  A
C707        C708   1.397       .  A
C707        N714   1.430       .  S
C708        C709   1.399       .  A
C708        H713   1.087       .  S
C709        C710   1.409       .  A
C710        N711   1.437       .  S
N711        O715   1.262   1_455  A
N711        O716   1.262       .  A
N714        O718   1.262       .  A
N714        O717   1.262       .  A
C719        C720   1.405       .  A
C719        C724   1.404       .  A
C719        H726   1.086   1_655  S
C720        C721   1.408       .  A
C721        C722   1.400       .  A
C721        N728   1.436       .  S
C722        C723   1.411       .  A
C722        H727   1.085       .  S
C723        C724   1.414       .  A
C724        N725   1.429       .  S
N725        O729   1.262       .  A
N725        O730   1.262   1_655  A
N728        O732   1.262       .  A
N728        O731   1.262       .  A
C733        C734   1.399       .  A
C733        C738   1.403       .  A
C733        H740   1.086       .  S
C734        C735   1.423       .  A
C735        C736   1.409       .  A
C735        N742   1.438   1_655  S
C736        C737   1.400       .  A
C736        H741   1.086       .  S
C737        C738   1.419       .  A
C738        N739   1.437       .  S
N739        O743   1.263       .  A
N739        O744   1.263       .  A
N742        O746   1.263       .  A
N742        O745   1.263       .  A
C747        C748   1.410       .  A
C747        C752   1.402       .  A
C747        H754   1.085       .  S
C748        C749   1.415       .  A
C749        C750   1.403       .  A
C749        N756   1.429       .  S
C750        C751   1.404       .  A
C750        H755   1.085   1_455  S
C751        C752   1.406       .  A
C752        N753   1.429       .  S
N753        O757   1.262   1_565  A
N753        O758   1.262       .  A
N756        O760   1.262       .  A
N756        O759   1.262       .  A
C761        C762   1.399       .  A
C761        C766   1.400       .  A
C761        H768   1.086       .  S
C762        C763   1.405       .  A
C763        C764   1.402       .  A
C763        N770   1.429       .  S
C764        C765   1.410       .  A
C764        H769   1.085       .  S
C765        C766   1.421       .  A
C766        N767   1.433       .  S
N767        O771   1.262       .  A
N767        O772   1.262       .  A
N770        O774   1.262       .  A
N770        O773   1.262       .  A
C775        C776   1.400       .  A
C775        C780   1.405       .  A
C775        H782   1.088       .  S
C776        C777   1.423       .  A
C777        C778   1.409       .  A
C777        N784   1.439   1_655  S
C778        C779   1.400       .  A
C778        H783   1.088       .  S
C779        C780   1.420       .  A
C780        N781   1.439       .  S
N781        O785   1.263       .  A
N781        O786   1.263       .  A
N784        O788   1.263       .  A
N784        O787   1.263       .  A
C789        C790   1.407       .  A
C789        C794   1.401       .  A
C789        H796   1.086       .  S
C790        C791   1.411       .  A
C791        C792   1.403       .  A
C791        N798   1.434       .  S
C792        C793   1.408       .  A
C792        H797   1.086       .  S
C793        C794   1.412       .  A
C794        N795   1.433       .  S
N795        O799   1.262       .  A
N795        O800   1.262       .  A
N798        O802   1.262       .  A
N798        O801   1.262       .  A
C803        C804   1.417       .  A
C803        C808   1.405       .  A
C803        H810   1.085       .  S
C804        C805   1.413       .  A
C805        C806   1.400       .  A
C805        N812   1.435       .  S
C806        C807   1.409       .  A
C806        H811   1.086       .  S
C807        C808   1.403       .  A
C808        N809   1.428       .  S
N809        O813   1.262       .  A
N809        O814   1.262       .  A
N812        O816   1.262   1_545  A
N812        O815   1.263       .  A
C817        C818   1.402       .  A
C817        C822   1.406       .  A
C817        H824   1.083       .  S
C818        C819   1.407       .  A
C819        C820   1.407       .  A
C819        N826   1.430       .  S
C820        C821   1.411       .  A
C820        H825   1.083       .  S
C821        C822   1.420       .  A
C822        N823   1.434       .  S
N823        O827   1.262       .  A
N823        O828   1.263       .  A
N826        O830   1.262   1_545  A
N826        O829   1.262       .  A
C831        C832   1.405       .  A
C831        C836   1.403       .  A
C831        H838   1.096       .  S
C832        C833   1.413       .  A
C833        C834   1.406       .  A
C833        N840   1.434       .  S
C834        C835   1.406       .  A
C834        H839   1.096       .  S
C835        C836   1.414       .  A
C836        N837   1.430       .  S
N837        O841   1.262       .  A
N837        O842   1.262       .  A
N840        O844   1.262   1_565  A
N840        O843   1.262       .  A
C845        C846   1.400       .  A
C845        C850   1.403       .  A
C845        H852   1.087       .  S
C846        C847   1.424       .  A
C847        C848   1.410       .  A
C847        N854   1.438       .  S
C848        C849   1.401       .  A
C848        H853   1.087       .  S
C849        C850   1.419       .  A
C850        N851   1.437       .  S
N851        O855   1.263       .  A
N851        O856   1.263       .  A
N854        O858   1.263       .  A
N854        O857   1.263       .  A
C859        C860   1.402       .  A
C859        C864   1.404       .  A
C859        H866   1.085       .  S
C860        C861   1.408       .  A
C861        C862   1.405       .  A
C861        N868   1.431       .  S
C862        C863   1.410       .  A
C862        H867   1.084       .  S
C863        C864   1.420       .  A
C864        N865   1.434       .  S
N865        O869   1.262       .  A
N865        O870   1.262       .  A
N868        O872   1.262       .  A
N868        O871   1.262       .  A
C873        C874   1.409       .  A
C873        C878   1.403       .  A
C873        H880   1.085       .  S
C874        C875   1.420       .  A
C875        C876   1.403       .  A
C875        N882   1.429       .  S
C876        C877   1.399       .  A
C876        H881   1.086       .  S
C877        C878   1.410       .  A
C878        N879   1.433       .  S
N879        O883   1.262       .  A
N879        O884   1.262       .  A
N882        O886   1.262       .  A
N882        O885   1.262       .  A
C887        C888   1.407       .  A
C887        C892   1.406       .  A
C887        H894   1.086       .  S
C888        C889   1.410       .  A
C889        C890   1.403       .  A
C889        N896   1.432       .  S
C890        C891   1.407       .  A
C890        H895   1.086       .  S
C891        C892   1.415       .  A
C892        N893   1.437       .  S
N893        O897   1.263       .  A
N893        O898   1.263       .  A
N896        O900   1.262       .  A
N896        O899   1.262       .  A
C901        C902   1.413       .  A
C901        C906   1.406       .  A
C901        H908   1.085       .  S
C902        C903   1.410       .  A
C903        C904   1.400       .  A
C903        N910   1.432       .  S
C904        C905   1.407       .  A
C904        H909   1.086       .  S
C905        C906   1.406       .  A
C906        N907   1.429       .  S
N907        O911   1.262       .  A
N907        O912   1.262       .  A
N910        O914   1.261       .  A
N910        O913   1.262       .  A
C915        C916   1.401       .  A
C915        C920   1.405       .  A
C915        H922   1.086       .  S
C916        C917   1.417       .  A
C917        C918   1.404       .  A
C917        N924   1.438       .  S
C918        C919   1.403       .  A
C918        H923   1.086       .  S
C919        C920   1.418       .  A
C920        N921   1.433       .  S
N921        O925   1.262       .  A
N921        O926   1.263       .  A
N924        O928   1.263       .  A
N924        O927   1.263       .  A
C929        C930   1.401       .  A
C929        C934   1.403       .  A
C929        H936   1.086       .  S
C930        C931   1.418       .  A
C931        C932   1.406       .  A
C931        N938   1.438       .  S
C932        C933   1.403       .  A
C932        H937   1.085       .  S
C933        C934   1.418       .  A
C934        N935   1.430       .  S
N935        O939   1.262       .  A
N935        O940   1.262       .  A
N938        O942   1.263       .  A
N938        O941   1.263       .  A
C943        C944   1.405       .  A
C943        C948   1.403       .  A
C943        H950   1.086       .  S
C944        C945   1.407       .  A
C945        C946   1.403       .  A
C945        N952   1.429       .  S
C946        C947   1.409       .  A
C946        H951   1.085       .  S
C947        C948   1.413       .  A
C948        N949   1.431       .  S
N949        O953   1.262       .  A
N949        O954   1.262       .  A
N952        O956   1.262       .  A
N952        O955   1.262       .  A
C957        C958   1.400       .  A
C957        C962   1.402       .  A
C957        H964   1.087       .  S
C958        C959   1.422       .  A
C959        C960   1.406       .  A
C959        N966   1.439       .  S
C960        C961   1.399       .  A
C960        H965   1.087       .  S
C961        C962   1.417       .  A
C962        N963   1.439       .  S
N963        O967   1.263       .  A
N963        O968   1.263       .  A
N966        O970   1.263       .  A
N966        O969   1.263       .  A
C971        C972   1.403       .  A
C971        C976   1.399       .  A
C971        H978   1.088       .  S
C972        C973   1.409       .  A
C973        C974   1.402       .  A
C973        N980   1.433       .  S
C974        C975   1.407       .  A
C974        H979   1.087       .  S
C975        C976   1.414       .  A
C976        N977   1.433       .  S
N977        O981   1.262       .  A
N977        O982   1.262       .  A
N980        O984   1.262       .  A
N980        O983   1.262       .  A
C985        C986   1.404       .  A
C985        C990   1.404       .  A
C985        H992   1.086       .  S
C986        C987   1.417       .  A
C987        C988   1.402       .  A
C987        N994   1.432       .  S
C988        C989   1.401       .  A
C988        H993   1.086       .  S
C989        C990   1.418       .  A
C990        N991   1.440       .  S
N991        O995   1.263       .  A
N991        O996   1.263       .  A
N994        O998   1.262       .  A
N994        O997   1.262       .  A
C999       C1000   1.405       .  A
C999       C1004   1.404       .  A
C999       H1006   1.086       .  S
C1000      C1001   1.409       .  A
C1001      C1002   1.402       .  A
C1001      N1008   1.434       .  S
C1002      C1003   1.409       .  A
C1002      H1007   1.086       .  S
C1003      C1004   1.413       .  A
C1004      N1005   1.434       .  S
N1005      O1009   1.262       .  A
N1005      O1010   1.262       .  A
N1008      O1012   1.262       .  A
N1008      O1011   1.262       .  A
C1013      C1014   1.408       .  A
C1013      C1018   1.403       .  A
C1013      H1020   1.087   1_545  S
C1014      C1015   1.411       .  A
C1015      C1016   1.402       .  A
C1015      N1022   1.434       .  S
C1016      C1017   1.407       .  A
C1016      H1021   1.086       .  S
C1017      C1018   1.410       .  A
C1018      N1019   1.433       .  S
N1019      O1023   1.262       .  A
N1019      O1024   1.262       .  A
N1022      O1026   1.262       .  A
N1022      O1025   1.262       .  A
C1027      C1028   1.409       .  A
C1027      C1032   1.404       .  A
C1027      H1034   1.085       .  S
C1028      C1029   1.405       .  A
C1029      C1030   1.407       .  A
C1029      N1036   1.428       .  S
C1030      C1031   1.415       .  A
C1030      H1035   1.085       .  S
C1031      C1032   1.409       .  A
C1032      N1033   1.430       .  S
N1033      O1037   1.261       .  A
N1033      O1038   1.262       .  A
N1036      O1040   1.262       .  A
N1036      O1039   1.262       .  A
C1041      C1042   1.409       .  A
C1041      C1046   1.402       .  A
C1041      H1048   1.086       .  S
C1042      C1043   1.405       .  A
C1043      C1044   1.400       .  A
C1043      N1050   1.429       .  S
C1044      C1045   1.408       .  A
C1044      H1049   1.086       .  S
C1045      C1046   1.406       .  A
C1046      N1047   1.429       .  S
N1047      O1051   1.262       .  A
N1047      O1052   1.262       .  A
N1050      O1054   1.262       .  A
N1050      O1053   1.262   1_554  A
C1055      C1056   1.409       .  A
C1055      C1060   1.403       .  A
C1055      H1062   1.087       .  S
C1056      C1057   1.404       .  A
C1057      C1058   1.403       .  A
C1057      N1064   1.428       .  S
C1058      C1059   1.414       .  A
C1058      H1063   1.087   1_556  S
C1059      C1060   1.409       .  A
C1060      N1061   1.431       .  S
N1061      O1065   1.262       .  A
N1061      O1066   1.262   1_565  A
N1064      O1068   1.262       .  A
N1064      O1067   1.262       .  A
C1069      C1070   1.400       .  A
C1069      C1074   1.410       .  A
C1069      H1076   1.087       .  S
C1070      C1071   1.422       .  A
C1071      C1072   1.405       .  A
C1071      N1078   1.437       .  S
C1072      C1073   1.399       .  A
C1072      H1077   1.087       .  S
C1073      C1074   1.425       .  A
C1074      N1075   1.438   1_554  S
N1075      O1079   1.263       .  A
N1075      O1080   1.263       .  A
N1078      O1082   1.263       .  A
N1078      O1081   1.263       .  A
C1083      C1084   1.405       .  A
C1083      C1088   1.404       .  A
C1083      H1090   1.086       .  S
C1084      C1085   1.407       .  A
C1085      C1086   1.404       .  A
C1085      N1092   1.429       .  S
C1086      C1087   1.409       .  A
C1086      H1091   1.086       .  S
C1087      C1088   1.416       .  A
C1088      N1089   1.437       .  S
N1089      O1093   1.263       .  A
N1089      O1094   1.263       .  A
N1092      O1096   1.262       .  A
N1092      O1095   1.262   1_556  A
C1097      C1098   1.400       .  A
C1097      C1102   1.408       .  A
C1097      H1104   1.086       .  S
C1098      C1099   1.418       .  A
C1099      C1100   1.404       .  A
C1099      N1106   1.433       .  S
C1100      C1101   1.399       .  A
C1100      H1105   1.086       .  S
C1101      C1102   1.421       .  A
C1102      N1103   1.436   1_545  S
N1103      O1107   1.262       .  A
N1103      O1108   1.263       .  A
N1106      O1110   1.262       .  A
N1106      O1109   1.262       .  A
C1111      C1112   1.412       .  A
C1111      C1116   1.406       .  A
C1111      H1118   1.087       .  S
C1112      C1113   1.408       .  A
C1113      C1114   1.401       .  A
C1113      N1120   1.432       .  S
C1114      C1115   1.409       .  A
C1114      H1119   1.087       .  S
C1115      C1116   1.410       .  A
C1116      N1117   1.433       .  S
N1117      O1121   1.262       .  A
N1117      O1122   1.262       .  A
N1120      O1124   1.261       .  A
N1120      O1123   1.262   1_565  A
C1125      C1126   1.407       .  A
C1125      C1130   1.404       .  A
C1125      H1132   1.087       .  S
C1126      C1127   1.408       .  A
C1127      C1128   1.402       .  A
C1127      N1134   1.436       .  S
C1128      C1129   1.407       .  A
C1128      H1133   1.087       .  S
C1129      C1130   1.412       .  A
C1130      N1131   1.438       .  S
N1131      O1135   1.263       .  A
N1131      O1136   1.262       .  A
N1134      O1138   1.263   1_556  A
N1134      O1137   1.262       .  A
C1139      C1140   1.412       .  A
C1139      C1144   1.406       .  A
C1139      H1146   1.086       .  S
C1140      C1141   1.409       .  A
C1141      C1142   1.407       .  A
C1141      N1148   1.435       .  S
C1142      C1143   1.415       .  A
C1142      H1147   1.086       .  S
C1143      C1144   1.412       .  A
C1144      N1145   1.436       .  S
N1145      O1149   1.262       .  A
N1145      O1150   1.263       .  A
N1148      O1152   1.262       .  A
N1148      O1151   1.262       .  A
C1153      C1154   1.408       .  A
C1153      C1158   1.405       .  A
C1153      H1160   1.085   1_554  S
C1154      C1155   1.411       .  A
C1155      C1156   1.403       .  A
C1155      N1162   1.432       .  S
C1156      C1157   1.404       .  A
C1156      H1161   1.086       .  S
C1157      C1158   1.408       .  A
C1158      N1159   1.431       .  S
N1159      O1163   1.262       .  A
N1159      O1164   1.262       .  A
N1162      O1166   1.262       .  A
N1162      O1165   1.262       .  A
C1167      C1168   1.402       .  A
C1167      C1172   1.403       .  A
C1167      H1174   1.085       .  S
C1168      C1169   1.409       .  A
C1169      C1170   1.404       .  A
C1169      N1176   1.436       .  S
C1170      C1171   1.410       .  A
C1170      H1175   1.084       .  S
C1171      C1172   1.417       .  A
C1172      N1173   1.431       .  S
N1173      O1177   1.262       .  A
N1173      O1178   1.262       .  A
N1176      O1180   1.262   1_556  A
N1176      O1179   1.262       .  A
C1181      C1182   1.399       .  A
C1181      C1186   1.400       .  A
C1181      H1188   1.087       .  S
C1182      C1183   1.417       .  A
C1183      C1184   1.404       .  A
C1183      N1190   1.438   1_554  S
C1184      C1185   1.403       .  A
C1184      H1189   1.087       .  S
C1185      C1186   1.417       .  A
C1186      N1187   1.434       .  S
N1187      O1191   1.262       .  A
N1187      O1192   1.262       .  A
N1190      O1194   1.263       .  A
N1190      O1193   1.263       .  A
C1195      C1196   1.409       .  A
C1195      C1200   1.408       .  A
C1195      H1202   1.086       .  S
C1196      C1197   1.414       .  A
C1197      C1198   1.402       .  A
C1197      N1204   1.435       .  S
C1198      C1199   1.405       .  A
C1198      H1203   1.086       .  S
C1199      C1200   1.411       .  A
C1200      N1201   1.435       .  S
N1201      O1205   1.262   1_655  A
N1201      O1206   1.262       .  A
N1204      O1208   1.262       .  A
N1204      O1207   1.263       .  A
C1209      C1210   1.404       .  A
C1209      C1214   1.401       .  A
C1209      H1216   1.086       .  S
C1210      C1211   1.408       .  A
C1211      C1212   1.402       .  A
C1211      N1218   1.430       .  S
C1212      C1213   1.408       .  A
C1212      H1217   1.086       .  S
C1213      C1214   1.413       .  A
C1214      N1215   1.430       .  S
N1215      O1219   1.262       .  A
N1215      O1220   1.262       .  A
N1218      O1222   1.262   1_655  A
N1218      O1221   1.262       .  A
C1223      C1224   1.410       .  A
C1223      C1228   1.405       .  A
C1223      H1230   1.085       .  S
C1224      C1225   1.417       .  A
C1225      C1226   1.402       .  A
C1225      N1232   1.430       .  S
C1226      C1227   1.401       .  A
C1226      H1231   1.086   1_455  S
C1227      C1228   1.409       .  A
C1228      N1229   1.435       .  S
N1229      O1233   1.263       .  A
N1229      O1234   1.262       .  A
N1232      O1236   1.262       .  A
N1232      O1235   1.262       .  A
C1237      C1238   1.401       .  A
C1237      C1242   1.412       .  A
C1237      H1244   1.086       .  S
C1238      C1239   1.420       .  A
C1239      C1240   1.404       .  A
C1239      N1246   1.439       .  S
C1240      C1241   1.400       .  A
C1240      H1245   1.086       .  S
C1241      C1242   1.425       .  A
C1242      N1243   1.439   1_655  S
N1243      O1247   1.263       .  A
N1243      O1248   1.263       .  A
N1246      O1250   1.263       .  A
N1246      O1249   1.263       .  A
C1251      C1252   1.405       .  A
C1251      C1256   1.406       .  A
C1251      H1258   1.086       .  S
C1252      C1253   1.418       .  A
C1253      C1254   1.400       .  A
C1253      N1260   1.432       .  S
C1254      C1255   1.399       .  A
C1254      H1259   1.087       .  S
C1255      C1256   1.417       .  A
C1256      N1257   1.440   1_556  S
N1257      O1261   1.263       .  A
N1257      O1262   1.263       .  A
N1260      O1264   1.262       .  A
N1260      O1263   1.262       .  A
C1265      C1266   1.410       .  A
C1265      C1270   1.401       .  A
C1265      H1272   1.085       .  S
C1266      C1267   1.415       .  A
C1267      C1268   1.400       .  A
C1267      N1274   1.429       .  S
C1268      C1269   1.402       .  A
C1268      H1273   1.086   1_455  S
C1269      C1270   1.405       .  A
C1270      N1271   1.429       .  S
N1271      O1275   1.262       .  A
N1271      O1276   1.262       .  A
N1274      O1278   1.262       .  A
N1274      O1277   1.262       .  A
C1279      C1280   1.412       .  A
C1279      C1284   1.407       .  A
C1279      H1286   1.087       .  S
C1280      C1281   1.410       .  A
C1281      C1282   1.399       .  A
C1281      N1288   1.436       .  S
C1282      C1283   1.407       .  A
C1282      H1287   1.088       .  S
C1283      C1284   1.410       .  A
C1284      N1285   1.437       .  S
N1285      O1289   1.263       .  A
N1285      O1290   1.263       .  A
N1288      O1292   1.263   1_655  A
N1288      O1291   1.263       .  A
C1293      C1294   1.403       .  A
C1293      C1298   1.408       .  A
C1293      H1300   1.086       .  S
C1294      C1295   1.417       .  A
C1295      C1296   1.400       .  A
C1295      N1302   1.430       .  S
C1296      C1297   1.400       .  A
C1296      H1301   1.087       .  S
C1297      C1298   1.420       .  A
C1298      N1299   1.438       .  S
N1299      O1303   1.262       .  A
N1299      O1304   1.263       .  A
N1302      O1306   1.262       .  A
N1302      O1305   1.262       .  A
C1307      C1308   1.406       .  A
C1307      C1312   1.404       .  A
C1307      H1314   1.085       .  S
C1308      C1309   1.418       .  A
C1309      C1310   1.405       .  A
C1309      N1316   1.430       .  S
C1310      C1311   1.402       .  A
C1310      H1315   1.086       .  S
C1311      C1312   1.415       .  A
C1312      N1313   1.438   1_556  S
N1313      O1317   1.263       .  A
N1313      O1318   1.262       .  A
N1316      O1320   1.262       .  A
N1316      O1319   1.262       .  A
C1321      C1322   1.404       .  A
C1321      C1326   1.401       .  A
C1321      H1328   1.086       .  S
C1322      C1323   1.407       .  A
C1323      C1324   1.402       .  A
C1323      N1330   1.434       .  S
C1324      C1325   1.411       .  A
C1324      H1329   1.085       .  S
C1325      C1326   1.413       .  A
C1326      N1327   1.429       .  S
N1327      O1331   1.262       .  A
N1327      O1332   1.262       .  A
N1330      O1334   1.262       .  A
N1330      O1333   1.262       .  A
C1335      C1336   1.399       .  A
C1335      C1340   1.406       .  A
C1335      H1342   1.088       .  S
C1336      C1337   1.422       .  A
C1337      C1338   1.410       .  A
C1337      N1344   1.439   1_554  S
C1338      C1339   1.401       .  A
C1338      H1343   1.088       .  S
C1339      C1340   1.421       .  A
C1340      N1341   1.440       .  S
N1341      O1345   1.263       .  A
N1341      O1346   1.263       .  A
N1344      O1348   1.263       .  A
N1344      O1347   1.263       .  A
