geometry optimzed in LAMMPS
_audit_creation_date              2020-11-30 
_audit_creation_method            'lammps2cif' 
_symmetry_space_group_name_H-M    'P1' 
_symmetry_Int_Tables_number       1 
_symmetry_cell_setting            triclinic 
loop_ 
_symmetry_equiv_pos_as_xyz 
  x,y,z 
_cell_length_a                    33.63799161 
_cell_length_b                    33.586127152478426 
_cell_length_c                    24.131910066309956 
_cell_angle_alpha                 90.27766311198774 
_cell_angle_beta                  89.62105922303707 
_cell_angle_gamma                 119.62770664628243 
loop_ 
_atom_site_label 
_atom_site_type_symbol 
_atom_site_fract_x 
_atom_site_fract_y 
_atom_site_fract_z 
_atom_site_charge 
C1          C  0.33065459  0.16667469  0.06198175     0.30600
C2          C  0.33260286  0.16519141  0.94938928     0.30600
C3          C  0.34950728  0.13719129  0.03548293    -0.05600
C4          C  0.28379776  0.14807597  0.03361524    -0.06400
C5          C  0.35997025  0.21379526  0.03383425    -0.06200
C6          C  0.35020577  0.13639794  0.97780345    -0.05600
C7          C  0.28555155  0.14766869  0.97607114    -0.06400
C8          C  0.36046697  0.21197894  0.97634821    -0.06200
C9          C  0.36952277  0.11025608  0.96177247    -0.31600
N10         N  0.38044080  0.09520251  0.00816405     0.14900
C11         C  0.36892661  0.11159749  0.05321895    -0.31600
H12         H  0.37578941  0.10624938  0.09540672     0.16800
C13         C  0.24170610  0.12635358  0.95721381    -0.30600
N14         N  0.21266867  0.11400672  0.00091124     0.13600
C15         C  0.23773580  0.12696068  0.04838012    -0.30600
C16         C  0.38552309  0.25547903  0.95681261    -0.30900
N17         N  0.40089404  0.28484593  0.00033888     0.14100
H18         H  0.39114533  0.26502021  0.91353784     0.16700
C19         C  0.38542978  0.25997447  0.04800509    -0.30900
H20         H  0.39205894  0.27429724  0.08938213     0.16700
H21         H  0.22368329  0.11944995  0.08992964     0.16700
H22         H  0.37646192  0.10381711  0.91979569     0.16800
H23         H  0.23106371  0.11810792  0.91457771     0.16700
C24         C  0.33039714  0.17230536  0.56193782     0.30600
C25         C  0.33616865  0.16516950  0.45011140     0.30600
C26         C  0.35503834  0.14629389  0.54160939    -0.05600
C27         C  0.28397699  0.14665240  0.53127770    -0.06400
C28         C  0.35590536  0.21803992  0.53038775    -0.06200
C29         C  0.35839603  0.14300442  0.48427256    -0.05600
C30         C  0.28795660  0.14366678  0.47416184    -0.06400
C31         C  0.35870353  0.21371349  0.47355286    -0.06200
C32         C  0.38336029  0.12108096  0.47478834    -0.31600
N33         N  0.39401619  0.11009915  0.52431596     0.14900
C34         C  0.37697750  0.12509840  0.56545714    -0.31600
H35         H  0.38028155  0.12074321  0.60926582     0.16800
C36         C  0.24499581  0.11944863  0.45240755    -0.30600
N37         N  0.21423583  0.10737332  0.49426823     0.13600
C38         C  0.23725105  0.12307891  0.54272493    -0.30600
C39         C  0.38251823  0.25672619  0.45169830    -0.30900
N40         N  0.39417327  0.28784174  0.49320966     0.14100
H41         H  0.39070474  0.26468585  0.40833430     0.16700
C42         C  0.37804208  0.26472344  0.54184314    -0.30900
H43         H  0.38252128  0.28052043  0.58220606     0.16700
H44         H  0.22063103  0.11626946  0.58263267     0.16700
H45         H  0.39386443  0.11390341  0.43539216     0.16800
H46         H  0.23669095  0.11118259  0.40908383     0.16700
C47         C  0.16414574  0.08684039  0.99352539     0.43100
N48         N  0.10466969  0.06353292  0.94234510     0.02000
C49         C  0.38685889  0.02166128  0.00693055    -0.05900
H50         H  0.42995726  0.43711695  0.13138401     0.07400
C51         C  0.44934127  0.35328317  0.94001866    -0.06300
Co52       Co  0.02718751  0.06749060  0.99726308     0.74200
N53         N  0.47191585  0.48201102  0.06588115    -0.25500
Co54       Co  0.42962327  0.45938577  0.99547830     0.74100
C55         C  0.42929984  0.33354865  0.99368141     0.43200
N56         N  0.02944139  0.44264007  0.86542795     0.01600
N57         N  0.43581518  0.40055919  0.98598215     0.01700
N58         N  0.45126671  0.09134651  0.00800290    -0.46300
H59         H  0.12945045  0.10360746  0.06583940     0.07400
N60         N  0.50918254  0.02200619  0.06913394     0.02000
N61         N  0.38855882  0.43957956  0.92554733     0.01700
C62         C  0.32828615  0.41543765  0.87590120     0.43300
N63         N  0.06656684  0.48339484  0.86685679    -0.24900
C64         C  0.04072961  0.14827099  0.92476683    -0.05800
N65         N  0.14683648  0.07076988  0.94299492    -0.46000
N66         N  0.34600871  0.43127525  0.92624578    -0.46200
C67         C  0.06152338  0.16833461  0.87138280     0.43100
N68         N  0.46095110  0.05766648  0.00483694     0.01900
N69         N  0.02257807  0.02248134  0.80125580    -0.24900
N70         N  0.09215557  0.07354651  0.98998315    -0.25400
N71         N  0.48394968  0.47950689  0.79973895     0.01600
H72         H  0.06447046  0.06984948  0.73756504     0.07500
H73         H  0.36261697  0.39992262  0.80202949     0.07500
N74         N  0.42410948  0.01671111  0.00415750    -0.25500
N75         N  0.45054905  0.39346479  0.93815779    -0.25100
N76         N  0.05761925  0.10257183  0.88092752     0.02000
C77         C  0.49583105  0.50356798  0.15294406     0.43300
C78         C  0.10353101  0.47795854  0.86509518    -0.06300
N79         N  0.40090737  0.43041717  0.87716124    -0.25100
H80         H  0.45631622  0.33729610  0.90515195     0.07500
N81         N  0.02548372  0.03827159  0.11756819    -0.46300
H82         H  0.13883887  0.50496323  0.86623669     0.07500
C83         C  0.49704627  0.00025761  0.71648326     0.43200
C84         C  0.12795325  0.08932805  0.02514366    -0.05800
Co85       Co  0.06418160  0.04403042  0.87193084     0.73800
N86         N  0.03867575  0.40862056  0.86292227    -0.46000
C87         C  0.40535549  0.07100578  0.00989171     0.43400
N88         N  0.07102757  0.13769093  0.84629816    -0.46000
Co89       Co  0.46568081  0.43573740  0.86919270     0.73900
C90         C  0.36454394  0.41420577  0.84282673    -0.06300
C91         C  0.46154684  0.46670706  0.11839504    -0.05900
N92         N  0.04151003  0.10913830  0.92794929    -0.25400
N93         N  0.42155652  0.36492689  0.02002055    -0.46200
H94         H  0.35166535  0.99436115  0.00647511     0.07500
C95         C  0.03308935  0.03955842  0.74952734    -0.06300
Cl96       Cl  0.49617247  0.99932864  0.93588778    -0.49300
C97         C  0.08457635  0.42859597  0.86234835     0.43200
H98         H  0.03194435  0.16359050  0.95877644     0.07400
N99         N  0.46899143  0.46704702  0.74815438    -0.46000
C100        C  0.16567539  0.08255317  0.48631842     0.43100
N101        N  0.10546036  0.06305060  0.43814194     0.02000
C102        C  0.39553414  0.03493665  0.52180511    -0.05900
H103        H  0.43055377  0.43633318  0.62871116     0.07400
C104        C  0.43919534  0.35657725  0.43057124    -0.06300
Co105      Co  0.03248394  0.07127326  0.50004163     0.72400
N106        N  0.47361251  0.48314985  0.56533352    -0.25500
Co107      Co  0.43019856  0.46633164  0.49670516     0.74100
C108        C  0.42053878  0.33650054  0.48443972     0.43200
N109        N  0.02162836  0.44500197  0.35850366     0.01600
N110        N  0.43115668  0.40515269  0.48168365     0.01700
N111        N  0.46234246  0.10180715  0.52370784    -0.46300
H112        H  0.13407682  0.09814815  0.56281281     0.07400
N113        N  0.01331106  0.02525919  0.56734615     0.02000
N114        N  0.38802559  0.45185591  0.42831668     0.01700
C115        C  0.32818204  0.43368413  0.38004755     0.43300
N116        N  0.06033678  0.48434201  0.35975152    -0.24900
C117        C  0.05432224  0.15799106  0.43406805    -0.05800
N118        N  0.14732127  0.06917270  0.43565002    -0.46000
N119        N  0.34663045  0.44682270  0.43070143    -0.46200
C120        C  0.07400205  0.17810371  0.38037611     0.43100
N121        N  0.46894841  0.06668677  0.51320589     0.01900
N122        N  0.01957963  0.02946946  0.30074291    -0.24900
N123        N  0.09466656  0.07185038  0.48770671    -0.25400
N124        N  0.47940905  0.48882086  0.29947587     0.01600
H125        H  0.06386792  0.07305389  0.23584590     0.07500
H126        H  0.35906309  0.41722334  0.30348539     0.07500
N127        N  0.43040196  0.02722143  0.51172134    -0.25500
N128        N  0.44383173  0.39829906  0.43231503    -0.25100
N129        N  0.06212769  0.10888900  0.38382652     0.02000
C130        C  0.49881195  0.49898989  0.65262764     0.43300
C131        C  0.09511569  0.47622989  0.35122441    -0.06300
N132        N  0.39852602  0.44282669  0.37871375    -0.25100
H133        H  0.44423505  0.34086613  0.39399772     0.07500
N134        N  0.02914533  0.03613911  0.61879510    -0.46300
H135        H  0.13106617  0.50160070  0.35118640     0.07500
C136        C  0.99529693  0.01022555  0.21335087     0.43200
C137        C  0.13096352  0.08485044  0.52121146    -0.05800
Co138      Co  0.06293598  0.04740083  0.36993085     0.73800
N139        N  0.02789290  0.40952559  0.34955367    -0.46000
C140        C  0.41686679  0.08414877  0.53152603     0.43400
N141        N  0.07833366  0.14570055  0.35135800    -0.46000
Co142      Co  0.46056803  0.44341563  0.36641565     0.73900
C143        C  0.36236485  0.43045008  0.34515517    -0.06300
C144        C  0.46300852  0.46526325  0.61670608    -0.05900
N145        N  0.04924497  0.11606397  0.43299636    -0.25400
N146        N  0.41582200  0.36839486  0.51404960    -0.46200
H147        H  0.35966946  0.00932383  0.52211755     0.07500
C148        C  0.03090209  0.04522678  0.24847747    -0.06300
Cl149      Cl  0.49610601  0.00545572  0.43576866    -0.49300
C150        C  0.07331038  0.42689679  0.34269841     0.43200
H151        H  0.04927628  0.17397788  0.47036598     0.07400
N152        N  0.46402241  0.47623984  0.24819803    -0.46000
C153        C  0.16192608  0.33581330  0.80704750     0.30600
C154        C  0.15991312  0.33618775  0.91964791     0.30600
C155        C  0.14191354  0.36410229  0.83430203    -0.05600
C156        C  0.13347147  0.28832296  0.83433925    -0.06400
C157        C  0.20880613  0.35506712  0.83546724    -0.06200
C158        C  0.14122690  0.36425897  0.89196135    -0.05600
C159        C  0.13217431  0.28938292  0.89190717    -0.06400
C160        C  0.20685511  0.35469491  0.89296046    -0.06200
C161        C  0.12068882  0.38904547  0.90889751    -0.31600
N162        N  0.10921154  0.40413459  0.86306403     0.14900
C163        C  0.12152184  0.38908672  0.81747283    -0.31600
H164        H  0.11478548  0.39524519  0.77559225     0.16800
C165        C  0.10428684  0.24577669  0.90984336    -0.30600
N166        N  0.08997097  0.21710157  0.86569871     0.13600
C167        C  0.10743048  0.24255836  0.81882299    -0.30600
C168        C  0.25043129  0.37527212  0.91240662    -0.30900
N169        N  0.27972884  0.38845275  0.86875354     0.14100
H170        H  0.26021951  0.38172089  0.95557867     0.16700
C171        C  0.25489911  0.37632241  0.82108159    -0.30900
H172        H  0.26917403  0.38421563  0.77964493     0.16700
H173        H  0.10138485  0.22899285  0.77707478     0.16700
H174        H  0.11343447  0.39467782  0.95107491     0.16800
H175        H  0.09483029  0.23545105  0.95235068     0.16700
C176        C  0.16381813  0.34440779  0.30722935     0.30600
C177        C  0.15824437  0.34845054  0.41940744     0.30600
C178        C  0.13587879  0.36629300  0.32945471    -0.05600
C179        C  0.14102979  0.29750762  0.33708835    -0.06400
C180        C  0.20962098  0.37154529  0.33749292    -0.06200
C181        C  0.13298582  0.36858637  0.38703716    -0.05600
C182        C  0.13852376  0.30056619  0.39432350    -0.06400
C183        C  0.20620121  0.37342795  0.39458763    -0.06200
C184        C  0.10730015  0.38964513  0.39778175    -0.31600
N185        N  0.09562423  0.40048611  0.34890071     0.14900
C186        C  0.11243356  0.38628908  0.30691247    -0.31600
H187        H  0.10829571  0.39090992  0.26343075     0.16800
C188        C  0.11487302  0.25721871  0.41505661    -0.30600
N189        N  0.10241957  0.22681071  0.37266379     0.13600
C190        C  0.11822264  0.25086621  0.32444493    -0.30600
C191        C  0.24950060  0.39736495  0.41528207    -0.30900
N192        N  0.27962575  0.40966956  0.37253470     0.14100
H193        H  0.25851489  0.40433770  0.45863266     0.16700
C194        C  0.25582482  0.39411519  0.32448849    -0.30900
H195        H  0.27087714  0.39831914  0.28366585     0.16700
H196        H  0.11189966  0.23571879  0.28352653     0.16700
H197        H  0.09744144  0.39714272  0.43729172     0.16800
H198        H  0.10636005  0.24864691  0.45824760     0.16700
C199        C  0.15395924  0.35401997  0.66528126     0.30400
C200        C  0.14314106  0.37256974  0.62008137    -0.36000
C201        C  0.15163494  0.36001760  0.56815025     0.16400
C202        C  0.16980102  0.33149057  0.56110651     0.22200
C203        C  0.18105264  0.31310638  0.60657303    -0.34100
C204        C  0.17226498  0.32548655  0.65885269     0.16300
O205        O  0.14810614  0.36099506  0.71724799    -0.26100
C206        C  0.16269127  0.33679900  0.74507514     0.06100
C207        C  0.17834657  0.31388635  0.71096260    -0.31000
O208        O  0.17451111  0.32431463  0.50854444    -0.22800
C209        C  0.15860427  0.34809075  0.48164655    -0.02800
C210        C  0.14464568  0.37163639  0.51698822    -0.17200
H211        H  0.12872991  0.39493359  0.62512398     0.20700
H212        H  0.19530066  0.29061093  0.60151250     0.19100
H213        H  0.19197106  0.29199431  0.72292284     0.19100
H214        H  0.13274202  0.39523697  0.50800041     0.14900
C215        C  0.16683277  0.32305710  0.16444073     0.30400
C216        C  0.16256999  0.29717510  0.11705254    -0.36000
C217        C  0.16485770  0.31845685  0.06653522     0.16400
C218        C  0.17018461  0.36178536  0.06267164     0.22200
C219        C  0.17686974  0.38861571  0.10996687    -0.34100
C220        C  0.17539157  0.36761719  0.16052894     0.16300
O221        O  0.16195755  0.30870543  0.21601780    -0.26100
C222        C  0.16829718  0.34485690  0.24546352     0.06100
C223        C  0.17831977  0.38292580  0.21313451    -0.31000
O224        O  0.16812378  0.37346875  0.01121102    -0.22800
C225        C  0.16123736  0.33701441  0.98182631    -0.02800
C226        C  0.16107108  0.30271069  0.01411477    -0.17200
H227        H  0.15649769  0.26242914  0.11940465     0.20700
H228        H  0.18169037  0.42291386  0.10763253     0.19100
H229        H  0.18463416  0.41635574  0.22649406     0.19100
H230        H  0.15935582  0.27103798  0.00126845     0.14900
C231        C  0.31289601  0.16879151  0.80673763     0.30400
C232        C  0.28724374  0.16633682  0.76017869    -0.36000
C233        C  0.30998815  0.17431175  0.70933727     0.16400
C234        C  0.35490384  0.18450292  0.70471978     0.22200
C235        C  0.38096662  0.18816949  0.75153940    -0.34100
C236        C  0.35803923  0.17959547  0.80245817     0.16300
O237        O  0.29790234  0.16103602  0.85797053    -0.26100
C238        C  0.33361342  0.16664624  0.88721904     0.06100
C239        C  0.37229327  0.17871401  0.85487443    -0.31000
O240        O  0.36807403  0.18707603  0.65286075    -0.22800
C241        C  0.33096031  0.17773819  0.62380596    -0.02800
C242        C  0.29418007  0.17096481  0.65702555    -0.17200
H243        H  0.25165289  0.15736806  0.76326879     0.20700
H244        H  0.41609664  0.19563214  0.74831201     0.19100
H245        H  0.40594598  0.18622495  0.86824677     0.19100
H246        H  0.26065064  0.16447466  0.64551404     0.14900
C247        C  0.33385852  0.14729099  0.20477590     0.30400
C248        C  0.34070856  0.12679609  0.25137462    -0.36000
C249        C  0.33722680  0.14450952  0.30252542     0.16400
C250        C  0.32712738  0.17946362  0.30728709     0.22200
C251        C  0.31947318  0.19943565  0.26067827    -0.34100
C252        C  0.32334823  0.18200149  0.20944262     0.16300
O253        O  0.33754538  0.13745040  0.15307712    -0.26100
C254        C  0.32936206  0.16608559  0.12400631     0.06100
C255        C  0.31965612  0.19432461  0.15687503    -0.31000
O256        O  0.32597617  0.19095003  0.35902153    -0.22800
C257        C  0.33633300  0.16370614  0.38794869    -0.02800
C258        C  0.34269166  0.13326789  0.35483975    -0.17200
H259        H  0.34906215  0.09961488  0.24789832     0.20700
H260        H  0.31173185  0.22702751  0.26414953     0.19100
H261        H  0.31209538  0.22064488  0.14385377     0.19100
H262        H  0.34850071  0.10565259  0.36665474     0.14900
C263        C  0.32820139  0.66552095  0.06308847     0.30600
C264        C  0.33036279  0.66439771  0.95052696     0.30600
C265        C  0.34700179  0.63607351  0.03653826    -0.05600
C266        C  0.28141640  0.64714854  0.03460582    -0.06400
C267        C  0.35780500  0.71264580  0.03517113    -0.06200
C268        C  0.34780756  0.63546944  0.97884615    -0.05600
C269        C  0.28324646  0.64686815  0.97706488    -0.06400
C270        C  0.35836182  0.71106086  0.97768606    -0.06200
C271        C  0.36802273  0.61023314  0.96268578    -0.31600
N272        N  0.37948441  0.59565641  0.00900462     0.14900
C273        C  0.36729479  0.61130859  0.05418850    -0.31600
H274        H  0.37444765  0.60626209  0.09637908     0.16800
C275        C  0.23937719  0.62505884  0.95815086    -0.30600
N276        N  0.21027467  0.61248847  0.00183647     0.13600
C277        C  0.23532809  0.62560927  0.04931310    -0.30600
C278        C  0.38454042  0.75451498  0.95846135    -0.30900
N279        N  0.40050979  0.78356902  0.00224824     0.14100
H280        H  0.39072525  0.76424374  0.91526704     0.16700
C281        C  0.38437295  0.75858430  0.04970475    -0.30900
H282        H  0.39150428  0.77267788  0.09119387     0.16700
H283        H  0.22126459  0.61788092  0.09084875     0.16700
H284        H  0.37536886  0.60423570  0.92070357     0.16800
H285        H  0.22883364  0.61667206  0.91549187     0.16700
C286        C  0.32808333  0.67059545  0.56299219     0.30600
C287        C  0.33323844  0.66416367  0.45103415     0.30600
C288        C  0.35319949  0.64531796  0.54181532    -0.05600
C289        C  0.28147729  0.64455849  0.53271853    -0.06400
C290        C  0.35294255  0.71657245  0.53178558    -0.06200
C291        C  0.35622120  0.64241520  0.48441221    -0.05600
C292        C  0.28517046  0.64193073  0.47550984    -0.06400
C293        C  0.35532801  0.71259147  0.47482107    -0.06200
C294        C  0.38145167  0.62094193  0.47396474    -0.31600
N295        N  0.39270293  0.60992938  0.52308603     0.14900
C296        C  0.37571303  0.62441046  0.56482835    -0.31600
H297        H  0.37936714  0.61979762  0.60846930     0.16800
C298        C  0.24215520  0.61750609  0.45405003    -0.30600
N299        N  0.21156094  0.60496602  0.49615589     0.13600
C300        C  0.23480182  0.62059507  0.54453877    -0.30600
C301        C  0.37959601  0.75572016  0.45338541    -0.30900
N302        N  0.39198758  0.78660222  0.49526533     0.14100
H303        H  0.38800719  0.76392783  0.41011464     0.16700
C304        C  0.37584882  0.76319992  0.54374228    -0.30900
H305        H  0.38123243  0.77873935  0.58438106     0.16700
H306        H  0.21847052  0.61369536  0.58466952     0.16700
H307        H  0.39155208  0.61399463  0.43412443     0.16800
H308        H  0.23369518  0.60954820  0.41070663     0.16700
C309        C  0.16171383  0.58526459  0.99456903     0.43100
N310        N  0.10213043  0.56212575  0.94359032     0.02000
C311        C  0.38657800  0.52281216  0.00634517    -0.05900
H312        H  0.43064911  0.93606682  0.13400212     0.07400
C313        C  0.45030681  0.85199707  0.94272184    -0.06300
Co314      Co  0.02482080  0.56650071  0.99863524     0.74200
N315        N  0.47252961  0.98078704  0.06833160    -0.25500
Co316      Co  0.43013588  0.95790499  0.99798442     0.74100
C317        C  0.42984002  0.83215822  0.99621129     0.43200
N318        N  0.03239853  0.94412443  0.86388058     0.01600
N319        N  0.43679494  0.89934861  0.98856170     0.01700
N320        N  0.45078167  0.59268030  0.00707322    -0.46300
H321        H  0.12720856  0.60208161  0.06707085     0.07400
N322        N  0.50852377  0.52327815  0.06683104     0.02000
N323        N  0.38882896  0.93739679  0.92833276     0.01700
C324        C  0.32811797  0.91161662  0.87935864     0.43300
N325        N  0.06944224  0.98492214  0.86552858    -0.24900
C326        C  0.03935097  0.64787072  0.92670553    -0.05800
N327        N  0.14428138  0.56927277  0.94406554    -0.46000
N328        N  0.34592917  0.92800620  0.92948401    -0.46200
C329        C  0.06013894  0.66800205  0.87336883     0.43100
N330        N  0.46064301  0.55918555  0.00247681     0.01900
N331        N  0.01976657  0.52116900  0.80272293    -0.24900
N332        N  0.08970162  0.57211584  0.99131818    -0.25400
N333        N  0.48398241  0.97786074  0.80196392     0.01600
H334        H  0.06182878  0.56828440  0.73894502     0.07500
H335        H  0.36259271  0.89640753  0.80540182     0.07500
N336        N  0.42388686  0.51817188  0.00199943    -0.25500
N337        N  0.45165526  0.89224838  0.94081395    -0.25100
N338        N  0.05546692  0.60177400  0.88233067     0.02000
C339        C  0.49660118  0.00251568  0.15532135     0.43300
C340        C  0.10648017  0.97965406  0.86420868    -0.06300
N341        N  0.40119860  0.92822153  0.87994071    -0.25100
H342        H  0.45710306  0.83590412  0.90781801     0.07500
N343        N  0.02268692  0.53725666  0.11900117    -0.46300
H344        H  0.14174670  0.00671592  0.86578301     0.07500
C345        C  0.49725228  0.50186527  0.71427040     0.43200
C346        C  0.12557460  0.58776888  0.02636319    -0.05800
Co347      Co  0.06153970  0.54276084  0.87327568     0.73800
N348        N  0.04173828  0.91019487  0.86167818    -0.46000
C349        C  0.40486167  0.57199448  0.01044136     0.43400
N350        N  0.06931376  0.63719086  0.84799500    -0.46000
Co351      Co  0.46627016  0.93421253  0.87161014     0.73900
C352        C  0.36455059  0.91103098  0.84599051    -0.06300
C353        C  0.46223544  0.96560655  0.12089908    -0.05900
N354        N  0.03953406  0.60840185  0.92946943    -0.25400
N355        N  0.42229665  0.86366618  0.02250718    -0.46200
H356        H  0.35145248  0.49535262  0.00672832     0.07500
C357        C  0.03037470  0.53809093  0.75094158    -0.06300
Cl358      Cl  0.49584909  0.50077254  0.93364174    -0.49300
C359        C  0.08762952  0.93034950  0.86144291     0.43200
H360        H  0.03086324  0.66325117  0.96092084     0.07400
N361        N  0.46904186  0.96529289  0.75038055    -0.46000
C362        C  0.16297667  0.58006368  0.48825136     0.43100
N363        N  0.10298004  0.56120003  0.43974111     0.02000
C364        C  0.39476590  0.53505083  0.51992238    -0.05900
H365        H  0.43028758  0.93515272  0.63065533     0.07400
C366        C  0.43872219  0.85535442  0.43326257    -0.06300
Co367      Co  0.03019657  0.56978860  0.50159057     0.72400
N368        N  0.47354016  0.98210599  0.56750142    -0.25500
Co369      Co  0.43029656  0.96561715  0.49874350     0.74100
C370        C  0.41949780  0.83525449  0.48700546     0.43200
N371        N  0.02388089  0.94626054  0.35826427     0.01600
N372        N  0.43085055  0.90420724  0.48396984     0.01700
N373        N  0.46134432  0.60221556  0.52153220    -0.46300
H374        H  0.13145246  0.59592140  0.56460248     0.07400
N375        N  0.01090218  0.52370150  0.56887321     0.02000
N376        N  0.38824041  0.95126350  0.43011846     0.01700
C377        C  0.32834366  0.93265949  0.38157547     0.43300
N378        N  0.06269641  0.98554258  0.35944271    -0.24900
C379        C  0.05214055  0.65660320  0.43547159    -0.05800
N380        N  0.14466863  0.56684372  0.43749117    -0.46000
N381        N  0.34676687  0.94607706  0.43224741    -0.46200
C382        C  0.07177942  0.67662668  0.38166764     0.43100
N383        N  0.46819178  0.56725805  0.51101566     0.01900
N384        N  0.01710351  0.52837586  0.30217357    -0.24900
N385        N  0.09222154  0.57008276  0.48929097    -0.25400
N386        N  0.47995910  0.98795266  0.30183541     0.01600
H387        H  0.06127543  0.57195671  0.23719628     0.07500
H388        H  0.35944017  0.91593914  0.30546404     0.07500
N389        N  0.42981255  0.52764247  0.50974591    -0.25500
N390        N  0.44370147  0.89723171  0.43478101    -0.25100
N391        N  0.05991181  0.60742945  0.38544691     0.02000
C392        C  0.49866910  0.99752296  0.65483843     0.43300
C393        C  0.09746797  0.97697507  0.35394977    -0.06300
N394        N  0.39881986  0.94205192  0.38067008    -0.25100
H395        H  0.44374054  0.83950054  0.39681058     0.07500
N396        N  0.02670607  0.53450476  0.62033787    -0.46300
H397        H  0.13348234  0.00207053  0.35506841     0.07500
C398        C  0.99242712  0.50941052  0.21485030     0.43200
C399        C  0.12835949  0.58269424  0.52296370    -0.05800
Co400      Co  0.06055727  0.54600019  0.37128639     0.73800
N401        N  0.02990136  0.91038742  0.35224040    -0.46000
C402        C  0.41586612  0.58423635  0.52950473     0.43400
N403        N  0.07603277  0.64412739  0.35282938    -0.46000
Co404      Co  0.46077874  0.94240501  0.36877183     0.73900
C405        C  0.36268315  0.92944536  0.34697438    -0.06300
C406        C  0.46280907  0.96404639  0.61878043    -0.05900
N407        N  0.04709930  0.61467996  0.43459659    -0.25400
N408        N  0.41501703  0.86740769  0.51634281    -0.46200
H409        H  0.35896325  0.50926301  0.52042108     0.07500
C410        C  0.02828713  0.54422153  0.24992272    -0.06300
Cl411      Cl  0.49577106  0.50643186  0.43346733    -0.49300
C412        C  0.07533956  0.92743010  0.34771352     0.43200
H413        H  0.04707341  0.67266251  0.47168446     0.07400
N414        N  0.46464729  0.97540711  0.25053167    -0.46000
C415        C  0.16279239  0.83548000  0.80885308     0.30600
C416        C  0.15959184  0.83575531  0.92139397     0.30600
C417        C  0.14452659  0.86539710  0.83551718    -0.05600
C418        C  0.13224859  0.78813801  0.83591670    -0.06400
C419        C  0.20901841  0.85261326  0.83804526    -0.06200
C420        C  0.14322093  0.86554570  0.89313371    -0.05600
C421        C  0.13042769  0.78925718  0.89347543    -0.06400
C422        C  0.20656119  0.85222909  0.89550470    -0.06200
C423        C  0.12293385  0.89072416  0.90933690    -0.31600
N424        N  0.11234790  0.90608532  0.86306593     0.14900
C425        C  0.12472090  0.89066547  0.81792563    -0.31600
H426        H  0.11785183  0.89622401  0.77583840     0.16800
C427        C  0.10241416  0.74568688  0.91149385    -0.30600
N428        N  0.08832409  0.71686700  0.86744911     0.13600
C429        C  0.10618153  0.74226831  0.82056037    -0.30600
C430        C  0.25000961  0.87206100  0.91543473    -0.30900
N431        N  0.27958295  0.88473402  0.87206397     0.14100
H432        H  0.25957028  0.87878918  0.95865416     0.16700
C433        C  0.25512047  0.87306512  0.82415977    -0.30900
H434        H  0.26970909  0.88116196  0.78288412     0.16700
H435        H  0.10088430  0.72851308  0.77894279     0.16700
H436        H  0.11475976  0.89601915  0.95122022     0.16800
H437        H  0.09342662  0.73544429  0.95412595     0.16700
C438        C  0.16341386  0.84311593  0.30931176     0.30600
C439        C  0.15859079  0.84671074  0.42155456     0.30600
C440        C  0.13596855  0.86524479  0.33243894    -0.05600
C441        C  0.14041890  0.79603831  0.33885998    -0.06400
C442        C  0.20954359  0.86984453  0.33926747    -0.06200
C443        C  0.13357354  0.86731428  0.39003066    -0.05600
C444        C  0.13829960  0.79888572  0.39616859    -0.06400
C445        C  0.20640650  0.87138833  0.39646588    -0.06200
C446        C  0.10875450  0.88901068  0.40197792    -0.31600
N447        N  0.09706830  0.90050465  0.35349963     0.14900
C448        C  0.11282595  0.88586358  0.31088225    -0.31600
H449        H  0.10814057  0.89065279  0.26763441     0.16800
C450        C  0.11383768  0.75551341  0.41662037    -0.30600
N451        N  0.10071704  0.72526439  0.37405497     0.13600
C452        C  0.11670268  0.74944161  0.32593034    -0.30600
C453        C  0.24972469  0.89536336  0.41700080    -0.30900
N454        N  0.27974129  0.90811751  0.37411011     0.14100
H455        H  0.25881948  0.90224785  0.46033975     0.16700
C456        C  0.25577046  0.89277309  0.32607907    -0.30900
H457        H  0.27071505  0.89755237  0.28511618     0.16700
H458        H  0.10984686  0.73445674  0.28490466     0.16700
H459        H  0.09974548  0.89639983  0.44222170     0.16800
H460        H  0.10511001  0.74677951  0.45972331     0.16700
C461        C  0.16075554  0.85803465  0.66709285     0.30400
C462        C  0.15414087  0.87973760  0.62168384    -0.36000
C463        C  0.15777929  0.86333186  0.56981040     0.16400
C464        C  0.16758198  0.82830120  0.56321132     0.22200
C465        C  0.17500222  0.80706423  0.60874821    -0.34100
C466        C  0.17113912  0.82334679  0.66082040     0.16300
O467        O  0.15693049  0.86671220  0.71910058    -0.26100
C468        C  0.16480182  0.83734810  0.74692200     0.06100
C469        C  0.17459812  0.80979189  0.71286432    -0.31000
O470        O  0.16880215  0.81818656  0.51091291    -0.22800
C471        C  0.15882673  0.84647312  0.48365272    -0.02800
C472        C  0.15281073  0.87623986  0.51831436    -0.17200
H473        H  0.14591600  0.90692244  0.62655071     0.20700
H474        H  0.18259977  0.77945422  0.60388765     0.19100
H475        H  0.18194595  0.78308464  0.72476610     0.19100
H476        H  0.14743920  0.90440932  0.50798403     0.14900
C477        C  0.16488134  0.82184600  0.16621234     0.30400
C478        C  0.16137502  0.79635172  0.11871278    -0.36000
C479        C  0.16311485  0.81750048  0.06827635     0.16400
C480        C  0.16687914  0.86020624  0.06460892     0.22200
C481        C  0.17261240  0.88664280  0.11202887    -0.34100
C482        C  0.17206053  0.86592587  0.16247928     0.16300
O483        O  0.16121920  0.80774780  0.21777141    -0.26100
C484        C  0.16709577  0.84364897  0.24741009     0.06100
C485        C  0.17557221  0.88131821  0.21513002    -0.31000
O486        O  0.16498513  0.87196703  0.01314026    -0.22800
C487        C  0.16004884  0.83629914  0.98355766    -0.02800
C488        C  0.16063217  0.80234813  0.01573449    -0.17200
H489        H  0.15672538  0.76212504  0.12091650     0.20700
H490        H  0.17652981  0.92059400  0.10983086     0.19100
H491        H  0.18162986  0.91464546  0.22853481     0.19100
H492        H  0.15992742  0.77118981  0.00258494     0.14900
C493        C  0.31110646  0.66824339  0.80787022     0.30400
C494        C  0.28564246  0.66606084  0.76125425    -0.36000
C495        C  0.30810484  0.67289982  0.71038451     0.16400
C496        C  0.35260716  0.68174925  0.70578354     0.22200
C497        C  0.37852342  0.68512893  0.75264272    -0.34100
C498        C  0.35587418  0.67777787  0.80361231     0.16300
O499        O  0.29618609  0.66120346  0.85913181    -0.26100
C500        C  0.33156149  0.66599474  0.88841215     0.06100
C501        C  0.37001640  0.67697081  0.85609986    -0.31000
O502        O  0.36560116  0.68379754  0.65393149    -0.22800
C503        C  0.32878643  0.67552471  0.62489917    -0.02800
C504        C  0.29238418  0.66983944  0.65806755    -0.17200
H505        H  0.25036613  0.65816733  0.76435418     0.20700
H506        H  0.41332947  0.69159250  0.74943993     0.19100
H507        H  0.40338871  0.68360337  0.86948378     0.19100
H508        H  0.25920330  0.66434105  0.64636069     0.14900
C509        C  0.32977701  0.64527509  0.20589460     0.30400
C510        C  0.33499263  0.62381121  0.25265863    -0.36000
C511        C  0.33260795  0.64235997  0.30369423     0.16400
C512        C  0.32513235  0.67907316  0.30819599     0.22200
C513        C  0.31897899  0.69995572  0.26145516    -0.34100
C514        C  0.32166566  0.68161325  0.21036916     0.16300
O515        O  0.33291966  0.63490797  0.15422536    -0.26100
C516        C  0.32673797  0.66483986  0.12506724     0.06100
C517        C  0.31884430  0.69439723  0.15778980    -0.31000
O518        O  0.32492944  0.69127904  0.35982743    -0.22800
C519        C  0.33333940  0.66273717  0.38892203    -0.02800
C520        C  0.33717852  0.63062863  0.35610901    -0.17200
H521        H  0.34141589  0.59532132  0.24939474     0.20700
H522        H  0.31325380  0.72888324  0.26471357     0.19100
H523        H  0.31305352  0.72187107  0.14467574     0.19100
H524        H  0.34107613  0.60189258  0.36836772     0.14900
C525        C  0.83005902  0.16707303  0.06289694     0.30600
C526        C  0.83179519  0.16544092  0.95035967     0.30600
C527        C  0.84926671  0.13792657  0.03641808    -0.05600
C528        C  0.78308709  0.14803004  0.03466595    -0.06400
C529        C  0.85903193  0.21421283  0.03463911    -0.06200
C530        C  0.84984348  0.13706936  0.97874970    -0.05600
C531        C  0.78470358  0.14751621  0.97712620    -0.06400
C532        C  0.85941759  0.21233416  0.97716036    -0.06200
C533        C  0.86972572  0.11151248  0.96260179    -0.31600
N534        N  0.88118377  0.09693147  0.00892716     0.14900
C535        C  0.86936702  0.11296440  0.05408219    -0.31600
H536        H  0.87647466  0.10786165  0.09626814     0.16800
C537        C  0.74076158  0.12533596  0.95845337    -0.30600
N538        N  0.71181095  0.11267460  0.00228924     0.13600
C539        C  0.73704038  0.12618772  0.04962185    -0.30600
C540        C  0.88447890  0.25582264  0.95754381    -0.30900
N541        N  0.89990363  0.28523114  0.00103231     0.14100
H542        H  0.89014860  0.26532361  0.91425721     0.16700
C543        C  0.88453239  0.26040343  0.04873330    -0.30900
H544        H  0.89134918  0.27476983  0.09008885     0.16700
H545        H  0.72314430  0.11852506  0.09123875     0.16700
H546        H  0.87670313  0.10516872  0.92059961     0.16800
H547        H  0.73006361  0.11673247  0.91587613     0.16700
C548        C  0.82914886  0.17213613  0.56291922     0.30600
C549        C  0.83436952  0.16577161  0.45094396     0.30600
C550        C  0.85509369  0.14771519  0.54172608    -0.05600
C551        C  0.78263901  0.14526450  0.53274368    -0.06400
C552        C  0.85313723  0.21812417  0.53165533    -0.06200
C553        C  0.85820111  0.14491468  0.48432665    -0.05600
C554        C  0.78630853  0.14267058  0.47551798    -0.06400
C555        C  0.85552881  0.21416422  0.47467828    -0.06200
C556        C  0.88379657  0.12384477  0.47386640    -0.31600
N557        N  0.89510614  0.11288078  0.52296229     0.14900
C558        C  0.87781244  0.12701921  0.56472466    -0.31600
H559        H  0.88120434  0.12212040  0.60835347     0.16800
C560        C  0.74331411  0.11740269  0.45426676    -0.30600
N561        N  0.71283515  0.10432231  0.49656981     0.13600
C562        C  0.73609295  0.12040383  0.54480736    -0.30600
C563        C  0.87902544  0.25730512  0.45317230    -0.30900
N564        N  0.89102153  0.28818173  0.49500449     0.14100
H565        H  0.88732018  0.26552900  0.40988630     0.16700
C566        C  0.87532397  0.26476096  0.54354158    -0.30900
H567        H  0.88064854  0.28030379  0.58417183     0.16700
H568        H  0.71983549  0.11315026  0.58498471     0.16700
H569        H  0.89392977  0.11692159  0.43404757     0.16800
H570        H  0.73478449  0.10925757  0.41096863     0.16700
C571        C  0.66327273  0.08488562  0.99531512     0.43100
N572        N  0.60338804  0.06066795  0.94462731     0.02000
C573        C  0.88815176  0.02391270  0.00595185    -0.05900
H574        H  0.92865639  0.43730037  0.13220482     0.07400
C575        C  0.94847369  0.35373471  0.94077657    -0.06300
Co576      Co  0.52588720  0.06469658  0.99966845     0.74200
N577        N  0.97080873  0.48223849  0.06681709    -0.25500
Co578      Co  0.92860662  0.45981739  0.99631552     0.74100
C579        C  0.92830328  0.33393688  0.99437949     0.43200
N580        N  0.53014445  0.44178029  0.86489934     0.01600
N581        N  0.93485848  0.40097415  0.98674126     0.01700
N582        N  0.95234168  0.09376828  0.00733721    -0.46300
H583        H  0.62862625  0.10172939  0.06761029     0.07400
N584        N  0.01037416  0.02437391  0.06644996     0.02000
N585        N  0.88742322  0.43978768  0.92650534     0.01700
C586        C  0.82660965  0.41390801  0.87755620     0.43300
N587        N  0.56745362  0.48237522  0.86670737    -0.24900
C588        C  0.53908698  0.14503774  0.92716554    -0.05800
N589        N  0.64574404  0.06839144  0.94498125    -0.46000
N590        N  0.84454468  0.43048344  0.92760313    -0.46200
C591        C  0.55979750  0.16508114  0.87382911     0.43100
N592        N  0.96221637  0.06029990  0.00262120     0.01900
N593        N  0.52085947  0.01888437  0.80389272    -0.24900
N594        N  0.59093952  0.07076940  0.99226892    -0.25400
N595        N  0.98280661  0.48019440  0.80070488     0.01600
H596        H  0.56273656  0.06607025  0.74007020     0.07500
H597        H  0.86102309  0.39834985  0.80382909     0.07500
N598        N  0.92548969  0.01927514  0.00178295    -0.25500
N599        N  0.94974540  0.39395662  0.93896681    -0.25100
N600        N  0.55593808  0.09931948  0.88322643     0.02000
C601        C  0.99480001  0.50343480  0.15396523     0.43300
C602        C  0.60420062  0.47654350  0.86562741    -0.06300
N603        N  0.89975557  0.43050491  0.87817006    -0.25100
H604        H  0.95547266  0.33776916  0.90590392     0.07500
N605        N  0.52429581  0.03625264  0.12016777    -0.46300
H606        H  0.63958617  0.50332097  0.86729016     0.07500
C607        C  0.99865319  0.00417987  0.71383062     0.43200
C608        C  0.62697984  0.08708184  0.02711594    -0.05800
Co609      Co  0.56263620  0.04078281  0.87441477     0.73800
N610        N  0.53899491  0.40751874  0.86274125    -0.46000
C611        C  0.90642959  0.07311714  0.01038269     0.43400
N612        N  0.56924035  0.13442560  0.84860594    -0.46000
Co613      Co  0.96476470  0.43626986  0.87003899     0.73900
C614        C  0.86306184  0.41323527  0.84426783    -0.06300
C615        C  0.96033851  0.46681877  0.11929611    -0.05900
N616        N  0.53995724  0.10596664  0.93028432    -0.25400
N617        N  0.92051132  0.36528788  0.02070579    -0.46200
H618        H  0.85302419  0.99645620  0.00596085     0.07500
C619        C  0.53137567  0.03578492  0.75209925    -0.06300
Cl620      Cl  0.99759644  0.00237082  0.93309541    -0.49300
C621        C  0.58482936  0.42710005  0.86281843     0.43200
H622        H  0.53046724  0.16040468  0.96127179     0.07400
N623        N  0.96790649  0.46769478  0.74912028    -0.46000
C624        C  0.66427045  0.07871616  0.48911258     0.43100
N625        N  0.60414706  0.05979407  0.44095311     0.02000
C626        C  0.89665245  0.03779330  0.51939699    -0.05900
H627        H  0.92931733  0.43723960  0.62987565     0.07400
C628        C  0.93739849  0.35683758  0.43284362    -0.06300
Co629      Co  0.53144130  0.06824984  0.50313088     0.72400
N630        N  0.97248140  0.48395361  0.56650373    -0.25500
Co631      Co  0.92908314  0.46725337  0.49791428     0.74100
C632        C  0.91823575  0.33683865  0.48661088     0.43200
N633        N  0.52299553  0.44542194  0.35685169     0.01600
N634        N  0.92948002  0.40573188  0.48340190     0.01700
N635        N  0.96346247  0.10471384  0.52106851    -0.46300
H636        H  0.63288487  0.09443521  0.56571293     0.07400
N637        N  0.51196233  0.02183556  0.57008041     0.02000
N638        N  0.88696423  0.45282837  0.42948605     0.01700
C639        C  0.82711053  0.43482672  0.38115915     0.43300
N640        N  0.56163439  0.48480291  0.35855001    -0.24900
C641        C  0.55528163  0.15620008  0.43859095    -0.05800
N642        N  0.64584632  0.06552743  0.43844210    -0.46000
N643        N  0.84568557  0.44812317  0.43174668    -0.46200
C644        C  0.57517721  0.17644086  0.38502935     0.43100
N645        N  0.97002953  0.06962288  0.51025522     0.01900
N646        N  0.51851036  0.02765200  0.30347497    -0.24900
N647        N  0.59342518  0.06849425  0.49062099    -0.25400
N648        N  0.97846593  0.48876025  0.30068045     0.01600
H649        H  0.56278981  0.07130952  0.23861933     0.07500
H650        H  0.85781569  0.41781946  0.30484260     0.07500
N651        N  0.93150317  0.03015074  0.50894857    -0.25500
N652        N  0.94229521  0.39866008  0.43423763    -0.25100
N653        N  0.56152917  0.10662339  0.38735371     0.02000
C654        C  0.99774070  0.49968099  0.65371705     0.43300
C655        C  0.59658522  0.47670694  0.35146791    -0.06300
N656        N  0.89736656  0.44346524  0.38001109    -0.25100
H657        H  0.94248651  0.34097593  0.39645000     0.07500
N658        N  0.52767935  0.03244668  0.62160221    -0.46300
H659        H  0.63252881  0.50204949  0.35241696     0.07500
C660        C  0.49402976  0.00871936  0.21608009     0.43200
C661        C  0.62965657  0.08112504  0.52409982    -0.05800
Co662      Co  0.56189359  0.04503293  0.37259316     0.73800
N663        N  0.52940192  0.40997956  0.34873149    -0.46000
C664        C  0.91803577  0.08696486  0.52923716     0.43400
N665        N  0.57860110  0.14379426  0.35542476    -0.46000
Co666      Co  0.95930697  0.44351830  0.36796566     0.73900
C667        C  0.86120898  0.43120908  0.34643558    -0.06300
C668        C  0.96183579  0.46606779  0.61785109    -0.05900
N669        N  0.54887050  0.11373928  0.43670891    -0.25400
N670        N  0.91368672  0.36898758  0.51588324    -0.46200
H671        H  0.86080652  0.01213278  0.52010922     0.07500
C672        C  0.52977053  0.04357296  0.25125438    -0.06300
Cl673      Cl  0.99713935  0.00813436  0.43324693    -0.49300
C674        C  0.57489020  0.42734413  0.34327658     0.43200
H675        H  0.55097020  0.17229889  0.47527114     0.07400
N676        N  0.96303847  0.47615767  0.24940204    -0.46000
C677        C  0.66000735  0.33213348  0.80928263     0.30600
C678        C  0.65813317  0.33316014  0.92192489     0.30600
C679        C  0.63985600  0.36035325  0.83617395    -0.05600
C680        C  0.63206906  0.28488139  0.83697079    -0.06400
C681        C  0.70705108  0.35208718  0.83762798    -0.06200
C682        C  0.63914530  0.36083000  0.89383040    -0.05600
C683        C  0.63068499  0.28615600  0.89448283    -0.06400
C684        C  0.70516357  0.35192651  0.89519116    -0.06200
C685        C  0.61951878  0.38658121  0.91027083    -0.31600
N686        N  0.60888894  0.40210414  0.86413007     0.14900
C687        C  0.62083959  0.38641993  0.81882981    -0.31600
H688        H  0.61530871  0.39333960  0.77674929     0.16800
C689        C  0.60263860  0.24256329  0.91247198    -0.30600
N690        N  0.58835150  0.21382459  0.86833378     0.13600
C691        C  0.60595051  0.23918064  0.82147573    -0.30600
C692        C  0.74882216  0.37300535  0.91453903    -0.30900
N693        N  0.77805787  0.38625097  0.87079681     0.14100
H694        H  0.75869217  0.37981036  0.95766084     0.16700
C695        C  0.75314445  0.37367566  0.82320345    -0.30900
H696        H  0.76739194  0.38158346  0.78176161     0.16700
H697        H  0.59984254  0.22560771  0.77972829     0.16700
H698        H  0.61257762  0.39285311  0.95231552     0.16800
H699        H  0.59302812  0.23232692  0.95497968     0.16700
C700        C  0.66234952  0.34194159  0.30977824     0.30600
C701        C  0.65735833  0.34710321  0.42188715     0.30600
C702        C  0.63312798  0.36245533  0.33176581    -0.05600
C703        C  0.64121173  0.29550383  0.34037395    -0.06400
C704        C  0.70826438  0.37075926  0.33955961    -0.06200
C705        C  0.63117673  0.36603168  0.38927574    -0.05600
C706        C  0.63907228  0.29910394  0.39755126    -0.06400
C707        C  0.70513052  0.37331185  0.39665625    -0.06200
C708        C  0.60947042  0.39117238  0.39955212    -0.31600
N709        N  0.59672231  0.40062209  0.35048279     0.14900
C710        C  0.61063042  0.38326640  0.30886515    -0.31600
H711        H  0.60599855  0.38712819  0.26531169     0.16800
C712        C  0.61606107  0.25588727  0.41895287    -0.30600
N713        N  0.60361826  0.22511106  0.37695383     0.13600
C714        C  0.61883888  0.24877078  0.32839742    -0.30600
C715        C  0.74851478  0.39838667  0.41686216    -0.30900
N716        N  0.77846815  0.41060823  0.37391620     0.14100
H717        H  0.75776309  0.40592049  0.46008205     0.16700
C718        C  0.75442695  0.39400464  0.32617205    -0.30900
H719        H  0.76930736  0.39767224  0.28533067     0.16700
H720        H  0.61209055  0.23327492  0.28765910     0.16700
H721        H  0.60508284  0.40414538  0.43869035     0.16800
H722        H  0.60767408  0.24767225  0.46225209     0.16700
C723        C  0.64310194  0.34175676  0.66749017     0.30400
C724        C  0.62525912  0.35338261  0.62223016    -0.36000
C725        C  0.64083866  0.34848772  0.57036113     0.16400
C726        C  0.67172959  0.33316791  0.56351421     0.22200
C727        C  0.68893937  0.32057633  0.60891418    -0.34100
C728        C  0.67330651  0.32546973  0.66105072     0.16300
O729        O  0.63452160  0.34566350  0.71952919    -0.26100
C730        C  0.65936711  0.33180713  0.74728568     0.06100
C731        C  0.68371620  0.31791998  0.71307735    -0.31000
O732        O  0.68177296  0.33175478  0.51114618    -0.22800
C733        C  0.65707813  0.34644163  0.48408830    -0.02800
C734        C  0.63040223  0.35672680  0.51909041    -0.17200
H735        H  0.60140843  0.36600255  0.62722000     0.20700
H736        H  0.71308050  0.30832477  0.60393636     0.19100
H737        H  0.70663133  0.30551206  0.72489806     0.19100
H738        H  0.60537851  0.36669183  0.50955789     0.14900
C739        C  0.66479230  0.32034007  0.16690654     0.30400
C740        C  0.66076313  0.29454497  0.11952344    -0.36000
C741        C  0.66280961  0.31570584  0.06898367     0.16400
C742        C  0.66765518  0.35883825  0.06505133     0.22200
C743        C  0.67400865  0.38558634  0.11236269    -0.34100
C744        C  0.67284663  0.36472550  0.16294929     0.16300
O745        O  0.66035540  0.30611299  0.21851917    -0.26100
C746        C  0.66651040  0.34219857  0.24795378     0.06100
C747        C  0.67596705  0.38009193  0.21554602    -0.31000
O748        O  0.66566593  0.37046521  0.01350931    -0.22800
C749        C  0.65934193  0.33416880  0.98415907    -0.02800
C750        C  0.65936508  0.30002940  0.01657856    -0.17200
H751        H  0.65517613  0.25997433  0.12188904     0.20700
H752        H  0.67851665  0.41976474  0.11001721     0.19100
H753        H  0.68215153  0.41348600  0.22887566     0.19100
H754        H  0.65796322  0.26848414  0.00379459     0.14900
C755        C  0.81176383  0.16801958  0.80773769     0.30400
C756        C  0.78601977  0.16533222  0.76119637    -0.36000
C757        C  0.80866990  0.17308214  0.71033605     0.16400
C758        C  0.85354253  0.18312078  0.70567039     0.22200
C759        C  0.87967523  0.18691249  0.75245259    -0.34100
C760        C  0.85688936  0.17874842  0.80341357     0.16300
O761        O  0.79692755  0.16075895  0.85902604    -0.26100
C762        C  0.83273534  0.16665184  0.88825051     0.06100
C763        C  0.87133496  0.17844288  0.85586756    -0.31000
O764        O  0.86674626  0.18591540  0.65381080    -0.22800
C765        C  0.82971942  0.17695968  0.62482189    -0.02800
C766        C  0.79293541  0.17010872  0.65806118    -0.17200
H767        H  0.75049445  0.15658323  0.76434751     0.20700
H768        H  0.91481548  0.19440867  0.74919906     0.19100
H769        H  0.90503381  0.18608345  0.86921804     0.19100
H770        H  0.75951314  0.16396732  0.64647014     0.14900
C771        C  0.83228151  0.14732199  0.20575216     0.30400
C772        C  0.83785447  0.12614261  0.25257015    -0.36000
C773        C  0.83477520  0.14432465  0.30358088     0.16400
C774        C  0.82639801  0.18046054  0.30799387     0.22200
C775        C  0.81991816  0.20104804  0.26119761    -0.34100
C776        C  0.82323232  0.18304575  0.21015041     0.16300
O777        O  0.83573338  0.13713435  0.15410065    -0.26100
C778        C  0.82879246  0.16655357  0.12488450     0.06100
C779        C  0.82011988  0.19559931  0.15755225    -0.31000
O780        O  0.82562887  0.19240933  0.35960842    -0.22800
C781        C  0.83454336  0.16427969  0.38881608    -0.02800
C782        C  0.83928726  0.13266506  0.35605388    -0.17200
H783        H  0.84495351  0.09809258  0.24937281     0.20700
H784        H  0.81342307  0.22948380  0.26439606     0.19100
H785        H  0.81354654  0.22255197  0.14439126     0.19100
H786        H  0.84369517  0.10424589  0.36833329     0.14900
C787        C  0.82961505  0.66865336  0.06140103     0.30600
C788        C  0.83122273  0.66665222  0.94884351     0.30600
C789        C  0.84807061  0.63881278  0.03510247    -0.05600
C790        C  0.78271684  0.65025779  0.03318551    -0.06400
C791        C  0.85926466  0.71555682  0.03293101    -0.06200
C792        C  0.84857189  0.63770801  0.97743263    -0.05600
C793        C  0.78428307  0.64962665  0.97564096    -0.06400
C794        C  0.85957742  0.71350569  0.97545168    -0.06200
C795        C  0.86816480  0.61178682  0.96158769    -0.31600
N796        N  0.87951171  0.59727175  0.00808920     0.14900
C797        C  0.86794941  0.61372370  0.05304033    -0.31600
H798        H  0.87517941  0.60888261  0.09527324     0.16800
C799        C  0.74033158  0.62729949  0.95702704    -0.30600
N800        N  0.71140965  0.61461378  0.00089032     0.13600
C801        C  0.73667606  0.62826322  0.04819087    -0.30600
C802        C  0.88572217  0.75680791  0.95566876    -0.30900
N803        N  0.90184496  0.78622870  0.99908269     0.14100
H804        H  0.89168987  0.76620346  0.91236166     0.16700
C805        C  0.88586776  0.76163594  0.04685711    -0.30900
H806        H  0.89303878  0.77609578  0.08816396     0.16700
H807        H  0.72282383  0.62034013  0.08981600     0.16700
H808        H  0.87512613  0.60524706  0.91966864     0.16800
H809        H  0.72964136  0.61835740  0.91449444     0.16700
C810        C  0.82899596  0.67340374  0.56139260     0.30600
C811        C  0.83448846  0.66697932  0.44946674     0.30600
C812        C  0.85430715  0.64827156  0.54042729    -0.05600
C813        C  0.78252941  0.64719830  0.53096327    -0.06400
C814        C  0.85374696  0.71936817  0.53019996    -0.06200
C815        C  0.85753862  0.64537415  0.48304686    -0.05600
C816        C  0.78636042  0.64457878  0.47377085    -0.06400
C817        C  0.85628410  0.71538882  0.47325981    -0.06200
C818        C  0.88247016  0.62352336  0.47289716    -0.31600
N819        N  0.89329069  0.61227856  0.52217118     0.14900
C820        C  0.87634103  0.62698663  0.56370372    -0.31600
H821        H  0.87955762  0.62213063  0.60739142     0.16800
C822        C  0.74341029  0.61976973  0.45225164    -0.30600
N823        N  0.71277865  0.60696227  0.49434408     0.13600
C824        C  0.73590100  0.62282848  0.54273411    -0.30600
C825        C  0.88026675  0.75851570  0.45181417    -0.30900
N826        N  0.89242491  0.78939170  0.49366852     0.14100
H827        H  0.88870546  0.76672325  0.40855165     0.16700
C828        C  0.87634610  0.76599175  0.54214503    -0.30900
H829        H  0.88160914  0.78153190  0.58277010     0.16700
H830        H  0.71953024  0.61570623  0.58284765     0.16700
H831        H  0.89248312  0.61630307  0.43315998     0.16800
H832        H  0.73502197  0.61161465  0.40892520     0.16700
C833        C  0.66292126  0.58630844  0.99403006     0.43100
N834        N  0.60309410  0.56162431  0.94309416     0.02000
C835        C  0.88586322  0.52384036  0.00603184    -0.05900
H836        H  0.93201500  0.93785152  0.13071668     0.07400
C837        C  0.95105545  0.85455895  0.93877830    -0.06300
Co838      Co  0.52559180  0.56615703  0.99740056     0.74200
N839        N  0.97380409  0.98309888  0.06535884    -0.25500
Co840      Co  0.93152668  0.96062750  0.99490765     0.74100
C841        C  0.93092119  0.83481224  0.99245516     0.43200
N842        N  0.53102800  0.94085581  0.86687806     0.01600
N843        N  0.93809584  0.90209259  0.98506453     0.01700
N844        N  0.95036278  0.59344428  0.00772232    -0.46300
H845        H  0.62808632  0.60358233  0.06568693     0.07400
N846        N  0.00761490  0.52335105  0.06786828     0.02000
N847        N  0.89040086  0.94070803  0.92501382     0.01700
C848        C  0.82985716  0.91550179  0.87567981     0.43300
N849        N  0.56804628  0.98168739  0.86821482    -0.24900
C850        C  0.54024237  0.64712101  0.92464106    -0.05800
N851        N  0.64547954  0.56944231  0.94375894    -0.46000
N852        N  0.84761819  0.93167181  0.92592611    -0.46200
C853        C  0.56163394  0.66712719  0.87148659     0.43100
N854        N  0.95995624  0.55973231  0.00376025     0.01900
N855        N  0.52110187  0.52031630  0.80174414    -0.24900
N856        N  0.59055007  0.57201431  0.99047207    -0.25400
N857        N  0.98563794  0.98151915  0.79917974     0.01600
H858        H  0.56327956  0.56734644  0.73793741     0.07500
H859        H  0.86444481  0.90040354  0.80177618     0.07500
N860        N  0.92303428  0.51882764  0.00277070    -0.25500
N861        N  0.95273874  0.89499665  0.93716264    -0.25100
N862        N  0.55650678  0.60080662  0.88109664     0.02000
C863        C  0.99785830  0.00427411  0.15249497     0.43300
C864        C  0.60512605  0.97647418  0.86632687    -0.06300
N865        N  0.90281627  0.93167965  0.87659093    -0.25100
H866        H  0.95763554  0.83842790  0.90373832     0.07500
N867        N  0.52354994  0.53740434  0.11791692    -0.46300
H868        H  0.64038761  0.00359712  0.86731834     0.07500
C869        C  0.99602085  0.50261634  0.71528499     0.43200
C870        C  0.62651365  0.58858640  0.02544229    -0.05800
Co871      Co  0.56264293  0.54189635  0.87258687     0.73800
N872        N  0.54043324  0.90696467  0.86431407    -0.46000
C873        C  0.90444270  0.57312339  0.00994990     0.43400
N874        N  0.57069358  0.63610219  0.84658201    -0.46000
Co875      Co  0.96771879  0.93750346  0.86839671     0.73900
C876        C  0.86632718  0.91487826  0.84244224    -0.06300
C877        C  0.96354493  0.96754797  0.11780168    -0.05900
N878        N  0.54027704  0.60761193  0.92789052    -0.25400
N879        N  0.92364201  0.86639297  0.01896552    -0.46200
H880        H  0.85064793  0.49658905  0.00555936     0.07500
C881        C  0.53177889  0.53720744  0.74993873    -0.06300
Cl882      Cl  0.99486839  0.50130437  0.93451831    -0.49300
C883        C  0.58634058  0.92715007  0.86359733     0.43200
H884        H  0.53176634  0.66273631  0.95860999     0.07400
N885        N  0.97062300  0.96916655  0.74760969    -0.46000
C886        C  0.66423592  0.58142331  0.48656777     0.43100
N887        N  0.60392875  0.56163028  0.43841266     0.02000
C888        C  0.89443842  0.53683880  0.51999118    -0.05900
H889        H  0.93180174  0.93883305  0.62849119     0.07400
C890        C  0.93934375  0.85797335  0.43166774    -0.06300
Co891      Co  0.53082465  0.56932111  0.50066377     0.72400
N892        N  0.97488680  0.98549717  0.56503416    -0.25500
Co893      Co  0.93141499  0.96859667  0.49641230     0.74100
C894        C  0.92000072  0.83801515  0.48537744     0.43200
N895        N  0.52302462  0.94407542  0.35930509     0.01600
N896        N  0.93177192  0.90708720  0.48217417     0.01700
N897        N  0.96140163  0.60364013  0.52142893    -0.46300
H898        H  0.63245317  0.59664576  0.56313450     0.07400
N899        N  0.51187397  0.52304415  0.56775467     0.02000
N900        N  0.88925658  0.95389506  0.42781618     0.01700
C901        C  0.82899134  0.93419456  0.37961040     0.43300
N902        N  0.56169810  0.98342827  0.36066980    -0.24900
C903        C  0.55306741  0.65661361  0.43532342    -0.05800
N904        N  0.64589149  0.56803945  0.43587078    -0.46000
N905        N  0.84758701  0.94818933  0.43009341    -0.46200
C906        C  0.57274131  0.67679999  0.38160673     0.43100
N907        N  0.96785012  0.56833858  0.51164267     0.01900
N908        N  0.51790048  0.52855578  0.30106236    -0.24900
N909        N  0.59306506  0.57019905  0.48806903    -0.25400
N910        N  0.98105014  0.98976268  0.29922540     0.01600
H911        H  0.56190228  0.57242968  0.23617068     0.07500
H912        H  0.86005308  0.91716484  0.30373451     0.07500
N913        N  0.92925410  0.52892176  0.51047308    -0.25500
N914        N  0.94455334  0.89992041  0.43306380    -0.25100
N915        N  0.56034395  0.60741911  0.38465767     0.02000
C916        C  0.00021188  0.00134272  0.65222660     0.43300
C917        C  0.59649969  0.97533672  0.35232065    -0.06300
N918        N  0.89980565  0.94451031  0.37842828    -0.25100
H919        H  0.94422507  0.84198868  0.39525482     0.07500
N920        N  0.52763860  0.53388377  0.61923737    -0.46300
H921        H  0.63245536  0.00068472  0.35253284     0.07500
C922        C  0.49327109  0.50963330  0.21373045     0.43200
C923        C  0.62938376  0.58333920  0.52154389    -0.05800
Co924      Co  0.56140856  0.54624634  0.37013893     0.73800
N925        N  0.52928021  0.90861392  0.35037466    -0.46000
C926        C  0.91595652  0.58613742  0.52898840     0.43400
N927        N  0.57671368  0.64431871  0.35237329    -0.46000
Co928      Co  0.96172818  0.94473964  0.36678196     0.73900
C929        C  0.86344271  0.93123106  0.34495233    -0.06300
C930        C  0.96428738  0.96768186  0.61641663    -0.05900
N931        N  0.54756928  0.61449706  0.43394399    -0.25400
N932        N  0.91566480  0.87030060  0.51461397    -0.46200
H933        H  0.85853838  0.51133590  0.52029388     0.07500
C934        C  0.52899419  0.54453948  0.24885684    -0.06300
Cl935      Cl  0.99480991  0.50672358  0.43466685    -0.49300
C936        C  0.57468694  0.92602490  0.34373912     0.43200
H937        H  0.54839299  0.67266680  0.47181008     0.07400
N938        N  0.96587151  0.97697376  0.24788659    -0.46000
C939        C  0.66343593  0.83442836  0.80760560     0.30600
C940        C  0.66170080  0.83475469  0.92020854     0.30600
C941        C  0.64373819  0.86289124  0.83502383    -0.05600
C942        C  0.63485476  0.78697305  0.83488843    -0.06400
C943        C  0.71036243  0.85347423  0.83584107    -0.06200
C944        C  0.64318519  0.86301309  0.89266641    -0.05600
C945        C  0.63371457  0.78797365  0.89246854    -0.06400
C946        C  0.70856218  0.85304632  0.89336472    -0.06200
C947        C  0.62268792  0.88777133  0.90979098    -0.31600
N948        N  0.61114951  0.90290277  0.86407274     0.14900
C949        C  0.62333524  0.88789082  0.81836636    -0.31600
H950        H  0.61640538  0.89399591  0.77655267     0.16800
C951        C  0.60551968  0.74438539  0.91032536    -0.30600
N952        N  0.59079907  0.71581830  0.86607499     0.13600
C953        C  0.60835717  0.74130801  0.81925816    -0.30600
C954        C  0.75220327  0.87407887  0.91262041    -0.30900
N955        N  0.78137392  0.88763647  0.86882500     0.14100
H956        H  0.76210336  0.88083422  0.95573638     0.16700
C957        C  0.75641676  0.87527114  0.82125903    -0.30900
H958        H  0.77055836  0.88360951  0.77978410     0.16700
H959        H  0.60196190  0.72784493  0.77745770     0.16700
H960        H  0.61539759  0.89327347  0.95200474     0.16800
H961        H  0.59603114  0.73400213  0.95281386     0.16700
C962        C  0.66420828  0.84279827  0.30800191     0.30600
C963        C  0.65918805  0.84719512  0.42018828     0.30600
C964        C  0.63672740  0.86507108  0.33038957    -0.05600
C965        C  0.64116773  0.79596803  0.33805578    -0.06400
C966        C  0.71022071  0.86975358  0.33796433    -0.06200
C967        C  0.63413681  0.86758232  0.38796759    -0.05600
C968        C  0.63892409  0.79920163  0.39530773    -0.06400
C969        C  0.70705820  0.87175304  0.39508535    -0.06200
C970        C  0.60868943  0.88884821  0.39883343    -0.31600
N971        N  0.59691401  0.89960075  0.34997738     0.14900
C972        C  0.61332466  0.88509579  0.30792816    -0.31600
H973        H  0.60888637  0.88948752  0.26446879     0.16800
C974        C  0.61455299  0.75593980  0.41618605    -0.30600
N975        N  0.60154005  0.72543749  0.37386469     0.13600
C976        C  0.61758165  0.74931938  0.32556693    -0.30600
C977        C  0.75041813  0.89629949  0.41546296    -0.30900
N978        N  0.78038169  0.90894404  0.37250764     0.14100
H979        H  0.75958430  0.90381475  0.45871058     0.16700
C980        C  0.75638428  0.89294804  0.32463111    -0.30900
H981        H  0.77127557  0.89761947  0.28364872     0.16700
H982        H  0.61088586  0.73407585  0.28468716     0.16700
H983        H  0.59898467  0.89645989  0.43838236     0.16800
H984        H  0.60593166  0.74750143  0.45938721     0.16700
C985        C  0.65513058  0.85269946  0.66596813     0.30400
C986        C  0.64463371  0.87160946  0.62085883    -0.36000
C987        C  0.65295533  0.85898890  0.56887741     0.16400
C988        C  0.67056513  0.82999035  0.56173398     0.22200
C989        C  0.68145695  0.81122790  0.60709126    -0.34100
C990        C  0.67294052  0.82375186  0.65939934     0.16300
O991        O  0.64960873  0.85984672  0.71797680    -0.26100
C992        C  0.66395328  0.83537698  0.74565632     0.06100
C993        C  0.67907444  0.81208206  0.71142410    -0.31000
O994        O  0.67516126  0.82277266  0.50917842    -0.22800
C995        C  0.65974324  0.84699465  0.48237187    -0.02800
C996        C  0.64627615  0.87092988  0.51775136    -0.17200
H997        H  0.63066899  0.89434860  0.62600391     0.20700
H998        H  0.69532353  0.78841538  0.60192805     0.19100
H999        H  0.69243663  0.78993861  0.72325634     0.19100
H1000       H  0.63486175  0.89493177  0.50879423     0.14900
C1001       C  0.66635328  0.82111339  0.16516185     0.30400
C1002       C  0.66236767  0.79528898  0.11782372    -0.36000
C1003       C  0.66531936  0.81675323  0.06725093     0.16400
C1004       C  0.67085460  0.86015882  0.06327166     0.22200
C1005       C  0.67707855  0.88687306  0.11056238    -0.34100
C1006       C  0.67509204  0.86572936  0.16119148     0.16300
O1007       O  0.66156926  0.80681861  0.21675504    -0.26100
C1008       C  0.66820734  0.84307597  0.24617896     0.06100
C1009       C  0.67821850  0.88112334  0.21378585    -0.31000
O1010       O  0.66954039  0.87205012  0.01170015    -0.22800
C1011       C  0.66297917  0.83566950  0.98238082    -0.02800
C1012       C  0.66221953  0.80118177  0.01484102    -0.17200
H1013       H  0.65628011  0.76054126  0.12023324     0.20700
H1014       H  0.68217501  0.92127306  0.10814539     0.19100
H1015       H  0.68491444  0.91468780  0.22711243     0.19100
H1016       H  0.66042188  0.76944474  0.00212262     0.14900
C1017       C  0.81147213  0.67001146  0.80622174     0.30400
C1018       C  0.78599340  0.66791139  0.75962800    -0.36000
C1019       C  0.80857892  0.67517211  0.70875941     0.16400
C1020       C  0.85319159  0.68435054  0.70418184     0.22200
C1021       C  0.87907155  0.68759826  0.75099290    -0.34100
C1022       C  0.85631160  0.67978849  0.80191389     0.16300
O1023       O  0.79659923  0.66286246  0.85751792    -0.26100
C1024       C  0.83209245  0.66781397  0.88671530     0.06100
C1025       C  0.87051599  0.67891180  0.85432511    -0.31000
O1026       O  0.86633411  0.68672863  0.65236400    -0.22800
C1027       C  0.82951586  0.67831452  0.62328074    -0.02800
C1028       C  0.79293797  0.67224195  0.65640596    -0.17200
H1029       H  0.75065698  0.65981973  0.76273311     0.20700
H1030       H  0.91396147  0.69431549  0.74777585     0.19100
H1031       H  0.90398047  0.68578770  0.86765207     0.19100
H1032       H  0.75968282  0.66651047  0.64465101     0.14900
C1033       C  0.83144945  0.64860065  0.20424265     0.30400
C1034       C  0.83667830  0.62707526  0.25094579    -0.36000
C1035       C  0.83417909  0.64547377  0.30204035     0.16400
C1036       C  0.82654152  0.68207670  0.30662798     0.22200
C1037       C  0.82039562  0.70303083  0.25993545    -0.34100
C1038       C  0.82324878  0.68487165  0.20878202     0.16300
O1039       O  0.83460915  0.63830456  0.15256611    -0.26100
C1040       C  0.82839716  0.66822251  0.12341944     0.06100
C1041       C  0.82045735  0.69772941  0.15619282    -0.31000
O1042       O  0.82620360  0.69413383  0.35829110    -0.22800
C1043       C  0.83471112  0.66563340  0.38733682    -0.02800
C1044       C  0.83875788  0.63368369  0.35444316    -0.17200
H1045       H  0.84318585  0.59864426  0.24758997     0.20700
H1046       H  0.81455458  0.73187966  0.26328633     0.19100
H1047       H  0.81456711  0.72514680  0.14311283     0.19100
H1048       H  0.84281355  0.60502719  0.36663673     0.14900
loop_ 
_geom_bond_atom_site_label_1 
_geom_bond_atom_site_label_2 
_geom_bond_distance 
_geom_bond_site_symmetry_2 
_ccdc_geom_bond_type 
C1            C3   1.550       .  S
C1            C5   1.548       .  S
C1            C4   1.543       .  S
C1          C254   1.497       .  S
C2            C6   1.528       .  S
C2            C8   1.521       .  S
C2            C7   1.528       .  S
C2          C238   1.501       .  S
C3           C11   1.382       .  A
C3            C6   1.392   1_554  A
C4           C15   1.393       .  A
C4            C7   1.390   1_554  A
C5           C19   1.393       .  A
C5            C8   1.389   1_554  A
C6            C9   1.378       .  A
C7           C13   1.363       .  A
C8           C16   1.361       .  A
C9           N10   1.356   1_556  A
C9           H22   1.083       .  S
N10          C11   1.355       .  A
N10          C87   1.428       .  S
C11          H12   1.081       .  S
C13          N14   1.352   1_556  A
C13          H23   1.081       .  S
N14          C15   1.363       .  A
N14          C47   1.435   1_554  S
C15          H21   1.082       .  S
C16          N17   1.355   1_556  A
C16          H18   1.082       .  S
N17          C19   1.365       .  A
N17          C55   1.439   1_554  S
C19          H20   1.082       .  S
C24          C26   1.548       .  S
C24          C28   1.541       .  S
C24          C27   1.551       .  S
C24         C241   1.502       .  S
C25          C29   1.535       .  S
C25          C31   1.526       .  S
C25          C30   1.524       .  S
C25         C257   1.501       .  S
C26          C34   1.383       .  A
C26          C29   1.396       .  A
C27          C38   1.393       .  A
C27          C30   1.392       .  A
C28          C42   1.390       .  A
C28          C31   1.386       .  A
C29          C32   1.381       .  A
C30          C36   1.367       .  A
C31          C39   1.365       .  A
C32          N33   1.354       .  A
C32          H45   1.079       .  S
N33          C34   1.357       .  A
N33         C140   1.431       .  S
C34          H35   1.082       .  S
C36          N37   1.353       .  A
C36          H46   1.083       .  S
N37          C38   1.359       .  A
N37         C100   1.434       .  S
C38          H44   1.077       .  S
C39          N40   1.356       .  A
C39          H41   1.081       .  S
N40          C42   1.363       .  A
N40         C108   1.439       .  S
C42          H43   1.082       .  S
C47          N65   1.345       .  A
C47          C84   1.469   1_556  S
N48          N65   1.316       .  A
N48          N70   1.320       .  A
N48         Co85   2.076       .  S
C49          N74   1.344       .  A
C49          H94   1.081   1_545  S
C49          C87   1.456       .  S
H50          C91   1.081       .  S
C51          N75   1.331       .  A
C51          H80   1.081       .  S
C51          C55   1.458       .  S
Co52         N70   2.099       .  S
Co52         N92   2.081       .  S
Co52        N584   2.099   1_556  S
Co52        N592   2.080   1_456  S
Co52       Cl620   2.451   1_455  S
N53          C91   1.347       .  A
N53         N322   1.323       .  A
N53         Co54   2.107   1_554  S
Co54         N57   2.098       .  S
Co54         N61   2.076       .  S
Co54        N336   2.082   1_556  S
Co54       Cl358   2.457       .  S
C55          N93   1.358   1_556  A
N56          N63   1.321       .  A
N56          N86   1.325       .  A
N56        Co613   2.080   1_455  S
N57          N75   1.319       .  A
N57          N93   1.332   1_556  A
N58          C87   1.345       .  A
N58          N68   1.325       .  A
H59          C84   1.081       .  S
N60         N315   1.323   1_545  A
N60         N605   1.329       .  A
N60        Co576   2.097   1_554  S
N61          N79   1.322       .  A
N61          N66   1.316       .  A
C62          N66   1.343       .  A
C62         N169   1.434       .  S
C62          C90   1.471       .  S
N63          C78   1.343       .  A
N63        Co347   2.088       .  S
C64          N92   1.330       .  A
C64          H98   1.081       .  S
C64          C67   1.461       .  S
C67          N88   1.358       .  A
C67         N166   1.438       .  S
N68          N74   1.320       .  A
N68        Co576   2.081   1_554  S
N69          C95   1.346       .  A
N69         N857   1.323   1_445  A
N69         Co85   2.100       .  S
N70          C84   1.352   1_556  A
N71          N99   1.332       .  A
N71         N855   1.323       .  A
N71         Co89   2.113       .  S
H72          C95   1.081       .  S
H73          C90   1.081       .  S
N74        Co316   2.087   1_544  S
N75         Co89   2.084       .  S
N76          N88   1.331       .  A
N76          N92   1.318       .  A
N76         Co85   2.094       .  S
C77         N867   1.352       .  A
C77          C91   1.466       .  S
C77         C922   1.488       .  S
C78          H82   1.081       .  S
C78          C97   1.454       .  S
N79          C90   1.353       .  A
N79         Co89   2.104       .  S
N81         C863   1.352   1_455  A
N81         N584   1.329       .  A
C83         N361   1.357   1_545  A
C83         C619   1.462       .  S
C83         C392   1.492   1_545  S
Co85        N325   2.083   1_545  S
Co85       Cl620   2.456   1_455  S
N86          C97   1.345       .  A
Co89        N580   2.078       .  S
Co89       Cl358   2.453       .  S
C95         C607   1.462   1_455  S
Cl96       Co576   2.451   1_565  S
Cl96       Co316   2.457       .  S
Cl96       Co609   2.457   1_565  S
Cl96       Co351   2.452       .  S
C97         N162   1.427       .  S
N99         C345   1.356       .  A
C100        N118   1.345       .  A
C100        C137   1.468       .  S
N101        N118   1.320       .  A
N101        N123   1.322       .  A
N101       Co138   2.076       .  S
C102        N127   1.341       .  A
C102        H147   1.081       .  S
C102        C140   1.459       .  S
H103        C144   1.081       .  S
C104        N128   1.332       .  A
C104        H133   1.081       .  S
C104        C108   1.455       .  S
Co105       N123   2.101       .  S
Co105       N113   2.114       .  S
Co105       N145   2.091       .  S
Co105       N645   2.087   1_455  S
Co105      Cl673   2.451   1_455  S
N106        C144   1.347       .  A
N106        N899   1.323       .  A
N106       Co107   2.098       .  S
Co107       N110   2.101       .  S
Co107       N114   2.077       .  S
Co107       N389   2.088       .  S
Co107      Cl411   2.459       .  S
C108        N146   1.357       .  A
N109        N116   1.320       .  A
N109        N139   1.325       .  A
N109       Co666   2.083   1_455  S
N110        N128   1.320       .  A
N110        N146   1.332       .  A
N111        C140   1.352       .  A
N111        N121   1.327       .  A
H112        C137   1.081       .  S
N113        N134   1.331       .  A
N113        N892   1.323   1_445  A
N114        N132   1.321       .  A
N114        N119   1.318       .  A
C115        N119   1.345       .  A
C115        N192   1.432       .  S
C115        C143   1.467       .  S
N116        C131   1.340       .  A
N116       Co400   2.085       .  S
C117        N145   1.332       .  A
C117        H151   1.081       .  S
C117        C120   1.459       .  S
C120        N141   1.358       .  A
C120        N189   1.442       .  S
N121        N127   1.319       .  A
N121       Co629   2.089       .  S
N122        C148   1.348       .  A
N122        N910   1.323   1_445  A
N122       Co138   2.105       .  S
N123        C137   1.348       .  A
N124        N152   1.328       .  A
N124        N908   1.323       .  A
N124       Co142   2.096       .  S
H125        C148   1.082       .  S
H126        C143   1.081       .  S
N127       Co369   2.089   1_545  S
N128       Co142   2.076       .  S
N129        N141   1.333       .  A
N129        N145   1.322       .  A
N129       Co138   2.104       .  S
C130        N920   1.356       .  A
C130        C144   1.463       .  S
C130        C345   1.492       .  S
C131        H135   1.082       .  S
C131        C150   1.457       .  S
N132        C143   1.348       .  A
N132       Co142   2.096       .  S
N134        C916   1.356       .  A
C136        N938   1.352   1_545  A
C136        C148   1.465   1_655  S
C136        C863   1.489       .  S
Co138       N378   2.088   1_545  S
Co138      Cl673   2.462   1_455  S
N139        C150   1.348       .  A
Co142       N633   2.079       .  S
Co142      Cl411   2.452       .  S
Cl149      Co629   2.453       .  S
Cl149      Co369   2.459   1_545  S
Cl149      Co662   2.461       .  S
Cl149      Co404   2.452   1_545  S
C150        N185   1.426       .  S
N152        C922   1.351       .  A
C153        C155   1.552       .  S
C153        C157   1.542       .  S
C153        C156   1.545       .  S
C153        C206   1.496       .  S
C154        C158   1.526       .  S
C154        C160   1.521       .  S
C154        C159   1.529       .  S
C154        C225   1.501       .  S
C155        C163   1.384       .  A
C155        C158   1.391       .  A
C156        C167   1.392       .  A
C156        C159   1.390       .  A
C157        C171   1.391       .  A
C157        C160   1.388       .  A
C158        C161   1.378       .  A
C159        C165   1.362       .  A
C160        C168   1.360       .  A
C161        N162   1.354       .  A
C161        H174   1.082       .  S
N162        C163   1.354       .  A
C163        H164   1.080       .  S
C165        N166   1.354       .  A
C165        H175   1.079       .  S
N166        C167   1.364       .  A
C167        H173   1.082       .  S
C168        N169   1.355       .  A
C168        H170   1.083       .  S
N169        C171   1.363       .  A
C171        H172   1.082       .  S
C176        C178   1.544       .  S
C176        C180   1.536       .  S
C176        C179   1.549       .  S
C176        C222   1.497       .  S
C177        C181   1.540       .  S
C177        C183   1.523       .  S
C177        C182   1.528       .  S
C177        C209   1.502       .  S
C178        C186   1.379       .  A
C178        C181   1.397       .  A
C179        C190   1.395       .  A
C179        C182   1.390       .  A
C180        C194   1.386       .  A
C180        C183   1.386       .  A
C181        C184   1.383       .  A
C182        C188   1.364       .  A
C183        C191   1.366       .  A
C184        N185   1.353       .  A
C184        H197   1.076       .  S
N185        C186   1.352       .  A
C186        H187   1.081       .  S
C188        N189   1.356       .  A
C188        H198   1.081       .  S
N189        C190   1.366       .  A
C190        H196   1.082       .  S
C191        N192   1.356       .  A
C191        H193   1.083       .  S
N192        C194   1.361       .  A
C194        H195   1.082       .  S
C199        C204   1.379       .  A
C199        C200   1.395       .  A
C199        O205   1.306       .  A
C200        C201   1.393       .  A
C200        H211   1.083       .  S
C201        C210   1.353       .  A
C201        C202   1.377       .  A
C202        C203   1.404       .  A
C202        O208   1.313       .  A
C203        C204   1.401       .  A
C203        H212   1.083       .  S
C204        C207   1.365       .  A
O205        C206   1.325       .  A
C206        C207   1.391       .  A
C207        H213   1.082       .  S
O208        C209   1.333       .  A
C209        C210   1.389       .  A
C210        H214   1.073       .  S
C215        C220   1.381       .  A
C215        C216   1.398       .  A
C215        O221   1.317       .  A
C216        C217   1.398       .  A
C216        H227   1.082       .  S
C217        C226   1.351       .  A
C217        C218   1.379       .  A
C218        C219   1.399       .  A
C218        O224   1.317       .  A
C219        C220   1.401       .  A
C219        H228   1.083       .  S
C220        C223   1.353       .  A
O221        C222   1.328       .  A
C222        C223   1.392       .  A
C223        H229   1.082       .  S
O224        C225   1.330   1_554  A
C225        C226   1.392   1_556  A
C226        H230   1.080       .  S
C231        C236   1.379       .  A
C231        C232   1.398       .  A
C231        O237   1.310       .  A
C232        C233   1.397       .  A
C232        H243   1.083       .  S
C233        C242   1.356       .  A
C233        C234   1.378       .  A
C234        C235   1.402       .  A
C234        O240   1.314       .  A
C235        C236   1.400       .  A
C235        H244   1.082       .  S
C236        C239   1.361       .  A
O237        C238   1.328       .  A
C238        C239   1.391       .  A
C239        H245   1.082       .  S
O240        C241   1.331       .  A
C241        C242   1.391       .  A
C242        H246   1.076       .  S
C247        C252   1.379       .  A
C247        C248   1.400       .  A
C247        O253   1.310       .  A
C248        C249   1.397       .  A
C248        H259   1.083       .  S
C249        C258   1.359       .  A
C249        C250   1.378       .  A
C250        C251   1.401       .  A
C250        O256   1.311       .  A
C251        C252   1.398       .  A
C251        H260   1.082       .  S
C252        C255   1.362       .  A
O253        C254   1.328       .  A
C254        C255   1.390       .  A
C255        H261   1.082       .  S
O256        C257   1.331       .  A
C257        C258   1.391       .  A
C258        H262   1.078       .  S
C263        C265   1.548       .  S
C263        C267   1.547       .  S
C263        C266   1.543       .  S
C263        C516   1.496       .  S
C264        C268   1.527       .  S
C264        C270   1.520       .  S
C264        C269   1.528       .  S
C264        C500   1.500       .  S
C265        C273   1.381       .  A
C265        C268   1.393   1_554  A
C266        C277   1.393       .  A
C266        C269   1.390   1_554  A
C267        C281   1.392       .  A
C267        C270   1.388   1_554  A
C268        C271   1.377       .  A
C269        C275   1.364       .  A
C270        C278   1.361       .  A
C271        N272   1.355   1_556  A
C271        H284   1.083       .  S
N272        C273   1.355       .  A
N272        C349   1.426       .  S
C273        H274   1.081       .  S
C275        N276   1.353   1_556  A
C275        H285   1.081       .  S
N276        C277   1.363       .  A
N276        C309   1.435   1_554  S
C277        H283   1.082       .  S
C278        N279   1.355   1_556  A
C278        H280   1.082       .  S
N279        C281   1.364       .  A
N279        C317   1.437   1_554  S
C281        H282   1.082       .  S
C286        C288   1.548       .  S
C286        C290   1.542       .  S
C286        C289   1.552       .  S
C286        C503   1.501       .  S
C287        C291   1.534       .  S
C287        C293   1.526       .  S
C287        C292   1.523       .  S
C287        C519   1.499       .  S
C288        C296   1.382       .  A
C288        C291   1.395       .  A
C289        C300   1.393       .  A
C289        C292   1.392       .  A
C290        C304   1.391       .  A
C290        C293   1.386       .  A
C291        C294   1.380       .  A
C292        C298   1.366       .  A
C293        C301   1.366       .  A
C294        N295   1.354       .  A
C294        H307   1.080       .  S
N295        C296   1.357       .  A
N295        C402   1.429       .  S
C296        H297   1.082       .  S
C298        N299   1.353       .  A
C298        H308   1.083       .  S
N299        C300   1.360       .  A
N299        C362   1.435       .  S
C300        H306   1.078       .  S
C301        N302   1.356       .  A
C301        H303   1.081       .  S
N302        C304   1.364       .  A
N302        C370   1.439       .  S
C304        H305   1.082       .  S
C309        N327   1.345       .  A
C309        C346   1.470   1_556  S
N310        N327   1.316       .  A
N310        N332   1.320       .  A
N310       Co347   2.076       .  S
C311        N336   1.342       .  A
C311        H356   1.081       .  S
C311        C349   1.453       .  S
H312        C353   1.081       .  S
C313        N337   1.331       .  A
C313        H342   1.081       .  S
C313        C317   1.458       .  S
Co314       N332   2.102       .  S
Co314       N846   2.100   1_556  S
Co314       N354   2.082       .  S
Co314       N854   2.082   1_456  S
Co314      Cl882   2.452   1_455  S
N315        C353   1.347       .  A
N315       Co316   2.108   1_554  S
Co316       N319   2.098       .  S
Co316       N323   2.075       .  S
C317        N355   1.358   1_556  A
N318        N325   1.321       .  A
N318        N348   1.324       .  A
N318       Co875   2.077   1_455  S
N319        N337   1.320       .  A
N319        N355   1.331   1_556  A
N320        C349   1.347       .  A
N320        N330   1.325       .  A
H321        C346   1.081       .  S
N322        N867   1.329       .  A
N322       Co838   2.099   1_554  S
N323        N341   1.322       .  A
N323        N328   1.316       .  A
C324        N328   1.342       .  A
C324        N431   1.434       .  S
C324        C352   1.470       .  S
N325        C340   1.342       .  A
C326        N354   1.331       .  A
C326        H360   1.081       .  S
C326        C329   1.460       .  S
C329        N350   1.359       .  A
C329        N428   1.440       .  S
N330        N336   1.320       .  A
N330       Co838   2.082   1_554  S
N331        C357   1.346       .  A
N331        N595   1.323   1_455  A
N331       Co347   2.100       .  S
N332        C346   1.353   1_556  A
N333        N593   1.323   1_565  A
N333        N361   1.332       .  A
N333       Co351   2.116       .  S
H334        C357   1.081       .  S
H335        C352   1.081       .  S
N337       Co351   2.084       .  S
N338        N350   1.332       .  A
N338        N354   1.318       .  A
N338       Co347   2.101       .  S
C339        N605   1.352       .  A
C339        C353   1.466   1_545  S
C339        C660   1.488       .  S
C340        H344   1.081   1_565  S
C340        C359   1.453       .  S
N341        C352   1.353       .  A
N341       Co351   2.105       .  S
N343        C601   1.352   1_455  A
N343        N846   1.329       .  A
C345        C881   1.463       .  S
Co347      Cl882   2.458   1_455  S
N348        C359   1.345       .  A
Co351       N842   2.080       .  S
C357        C869   1.462   1_455  S
Cl358      Co838   2.451       .  S
Cl358      Co871   2.456       .  S
C359        N424   1.424       .  S
C362        N380   1.346       .  A
C362        C399   1.467       .  S
N363        N380   1.320       .  A
N363        N385   1.322       .  A
N363       Co400   2.081       .  S
C364        N389   1.341       .  A
C364        H409   1.081       .  S
C364        C402   1.458       .  S
H365        C406   1.081       .  S
C366        N390   1.332       .  A
C366        H395   1.081       .  S
C366        C370   1.457       .  S
Co367       N385   2.101       .  S
Co367       N375   2.114       .  S
Co367       N407   2.091       .  S
Co367       N907   2.086   1_455  S
Co367      Cl935   2.452   1_455  S
N368        C406   1.347       .  A
N368        N637   1.323   1_565  A
N368       Co369   2.098       .  S
Co369       N372   2.101       .  S
Co369       N376   2.080       .  S
C370        N408   1.357       .  A
N371        N378   1.320       .  A
N371        N401   1.324       .  A
N371       Co928   2.075   1_455  S
N372        N390   1.320       .  A
N372        N408   1.332       .  A
N373        C402   1.351       .  A
N373        N383   1.327       .  A
H374        C399   1.081       .  S
N375        N630   1.323   1_455  A
N375        N396   1.331       .  A
N376        N394   1.321       .  A
N376        N381   1.318       .  A
C377        N381   1.346       .  A
C377        N454   1.433       .  S
C377        C405   1.467       .  S
N378        C393   1.341       .  A
C379        N407   1.332       .  A
C379        H413   1.081       .  S
C379        C382   1.460       .  S
C382        N403   1.357       .  A
C382        N451   1.442       .  S
N383        N389   1.319       .  A
N383       Co891   2.087       .  S
N384        C410   1.348       .  A
N384        N648   1.323   1_455  A
N384       Co400   2.106       .  S
N385        C399   1.348       .  A
N386        N646   1.323   1_565  A
N386        N414   1.328       .  A
N386       Co404   2.098       .  S
H387        C410   1.081       .  S
H388        C405   1.081       .  S
N390       Co404   2.078       .  S
N391        N403   1.333       .  A
N391        N407   1.321       .  A
N391       Co400   2.100       .  S
C392        N658   1.356   1_565  A
C392        C406   1.463       .  S
C393        H397   1.081   1_565  S
C393        C412   1.456       .  S
N394        C405   1.349       .  A
N394       Co404   2.096       .  S
N396        C654   1.356   1_455  A
C398        N676   1.351       .  A
C398        C601   1.489       .  S
C398        C410   1.466   1_655  S
Co400      Cl935   2.462   1_455  S
N401        C412   1.345       .  A
Co404       N895   2.078       .  S
Cl411      Co891   2.452       .  S
Cl411      Co924   2.461       .  S
C412        N447   1.424       .  S
N414        C660   1.351   1_565  A
C415        C417   1.549       .  S
C415        C419   1.540       .  S
C415        C418   1.548       .  S
C415        C468   1.496       .  S
C416        C420   1.525       .  S
C416        C422   1.523       .  S
C416        C421   1.529       .  S
C416        C487   1.500       .  S
C417        C425   1.382       .  A
C417        C420   1.391       .  A
C418        C429   1.394       .  A
C418        C421   1.391       .  A
C419        C433   1.390       .  A
C419        C422   1.388       .  A
C420        C423   1.378       .  A
C421        C427   1.362       .  A
C422        C430   1.362       .  A
C423        N424   1.354       .  A
C423        H436   1.082       .  S
N424        C425   1.353       .  A
C425        H426   1.080       .  S
C427        N428   1.354       .  A
C427        H437   1.079       .  S
N428        C429   1.365       .  A
C429        H435   1.082       .  S
C430        N431   1.356       .  A
C430        H432   1.083       .  S
N431        C433   1.363       .  A
C433        H434   1.082       .  S
C438        C440   1.544       .  S
C438        C442   1.539       .  S
C438        C441   1.550       .  S
C438        C484   1.498       .  S
C439        C443   1.535       .  S
C439        C445   1.521       .  S
C439        C444   1.527       .  S
C439        C471   1.499       .  S
C440        C448   1.378       .  A
C440        C443   1.395       .  A
C441        C452   1.395       .  A
C441        C444   1.390       .  A
C442        C456   1.387       .  A
C442        C445   1.386       .  A
C443        C446   1.381       .  A
C444        C450   1.363       .  A
C445        C453   1.365       .  A
C446        N447   1.354       .  A
C446        H459   1.079       .  S
N447        C448   1.351       .  A
C448        H449   1.081       .  S
C450        N451   1.354       .  A
C450        H460   1.081       .  S
N451        C452   1.366       .  A
C452        H458   1.082       .  S
C453        N454   1.355       .  A
C453        H455   1.083       .  S
N454        C456   1.362       .  A
C456        H457   1.082       .  S
C461        C466   1.379       .  A
C461        C462   1.397       .  A
C461        O467   1.307       .  A
C462        C463   1.394       .  A
C462        H473   1.083       .  S
C463        C472   1.356       .  A
C463        C464   1.378       .  A
C464        C465   1.402       .  A
C464        O470   1.311       .  A
C465        C466   1.399       .  A
C465        H474   1.083       .  S
C466        C469   1.363       .  A
O467        C468   1.327       .  A
C468        C469   1.390       .  A
C469        H475   1.082       .  S
O470        C471   1.331       .  A
C471        C472   1.389       .  A
C472        H476   1.078       .  S
C477        C482   1.380       .  A
C477        C478   1.398       .  A
C477        O483   1.317       .  A
C478        C479   1.398       .  A
C478        H489   1.082       .  S
C479        C488   1.352       .  A
C479        C480   1.379       .  A
C480        C481   1.400       .  A
C480        O486   1.317       .  A
C481        C482   1.401       .  A
C481        H490   1.083       .  S
C482        C485   1.353       .  A
O483        C484   1.328       .  A
C484        C485   1.392       .  A
C485        H491   1.082       .  S
O486        C487   1.330   1_554  A
C487        C488   1.391   1_556  A
C488        H492   1.081       .  S
C493        C498   1.379       .  A
C493        C494   1.398       .  A
C493        O499   1.310       .  A
C494        C495   1.396       .  A
C494        H505   1.083       .  S
C495        C504   1.356       .  A
C495        C496   1.378       .  A
C496        C497   1.402       .  A
C496        O502   1.314       .  A
C497        C498   1.400       .  A
C497        H506   1.082       .  S
C498        C501   1.361       .  A
O499        C500   1.327       .  A
C500        C501   1.391       .  A
C501        H507   1.082       .  S
O502        C503   1.331       .  A
C503        C504   1.391       .  A
C504        H508   1.077       .  S
C509        C514   1.380       .  A
C509        C510   1.400       .  A
C509        O515   1.311       .  A
C510        C511   1.397       .  A
C510        H521   1.083       .  S
C511        C520   1.359       .  A
C511        C512   1.379       .  A
C512        C513   1.400       .  A
C512        O518   1.311       .  A
C513        C514   1.398       .  A
C513        H522   1.082       .  S
C514        C517   1.360       .  A
O515        C516   1.328       .  A
C516        C517   1.389       .  A
C517        H523   1.082       .  S
O518        C519   1.330       .  A
C519        C520   1.391       .  A
C520        H524   1.079       .  S
C525        C527   1.549       .  S
C525        C529   1.548       .  S
C525        C528   1.543       .  S
C525        C778   1.496       .  S
C526        C530   1.526       .  S
C526        C532   1.521       .  S
C526        C531   1.528       .  S
C526        C762   1.499       .  S
C527        C535   1.382       .  A
C527        C530   1.392   1_554  A
C528        C539   1.393       .  A
C528        C531   1.390   1_554  A
C529        C543   1.393       .  A
C529        C532   1.388   1_554  A
C530        C533   1.377       .  A
C531        C537   1.364       .  A
C532        C540   1.361       .  A
C533        N534   1.355   1_556  A
C533        H546   1.083       .  S
N534        C535   1.355       .  A
N534        C611   1.426       .  S
C535        H536   1.081       .  S
C537        N538   1.353   1_556  A
C537        H547   1.081       .  S
N538        C539   1.363       .  A
N538        C571   1.435   1_554  S
C539        H545   1.082       .  S
C540        N541   1.355   1_556  A
C540        H542   1.082       .  S
N541        C543   1.365       .  A
N541        C579   1.439   1_554  S
C543        H544   1.082       .  S
C548        C550   1.547       .  S
C548        C552   1.542       .  S
C548        C551   1.551       .  S
C548        C765   1.501       .  S
C549        C553   1.533       .  S
C549        C555   1.526       .  S
C549        C554   1.523       .  S
C549        C781   1.500       .  S
C550        C558   1.382       .  A
C550        C553   1.395       .  A
C551        C562   1.392       .  A
C551        C554   1.392       .  A
C552        C566   1.391       .  A
C552        C555   1.386       .  A
C553        C556   1.380       .  A
C554        C560   1.366       .  A
C555        C563   1.365       .  A
C556        N557   1.354       .  A
C556        H569   1.080       .  S
N557        C558   1.357       .  A
N557        C664   1.429       .  S
C558        H559   1.082       .  S
C560        N561   1.353       .  A
C560        H570   1.083       .  S
N561        C562   1.359       .  A
N561        C624   1.433       .  S
C562        H568   1.078       .  S
C563        N564   1.356       .  A
C563        H565   1.081       .  S
N564        C566   1.364       .  A
N564        C632   1.439       .  S
C566        H567   1.082       .  S
C571        N589   1.345       .  A
C571        C608   1.470   1_556  S
N572        N589   1.316       .  A
N572        N594   1.320       .  A
N572       Co609   2.076       .  S
C573        N598   1.343       .  A
C573        H618   1.081   1_545  S
C573        C611   1.454       .  S
H574        C615   1.082       .  S
C575        N599   1.331       .  A
C575        H604   1.081       .  S
C575        C579   1.458       .  S
Co576       N594   2.101       .  S
Co576       N616   2.077       .  S
N577        C615   1.348       .  A
N577        N846   1.323   1_655  A
N577       Co578   2.107   1_554  S
Co578       N581   2.100       .  S
Co578       N860   2.086   1_556  S
Co578       N585   2.076       .  S
Co578      Cl882   2.457       .  S
C579        N617   1.358   1_556  A
N580        N587   1.321       .  A
N580        N610   1.324       .  A
N581        N599   1.320       .  A
N581        N617   1.332   1_556  A
N582        C611   1.346       .  A
N582        N592   1.324       .  A
H583        C608   1.081       .  S
N584        N839   1.323   1_445  A
N585        N603   1.322       .  A
N585        N590   1.316       .  A
C586        N590   1.343       .  A
C586        N693   1.435       .  S
C586        C614   1.471       .  S
N587        C602   1.344       .  A
N587       Co871   2.088       .  S
C588        N616   1.329       .  A
C588        H622   1.081       .  S
C588        C591   1.459       .  S
C591        N612   1.359       .  A
C591        N690   1.437       .  S
N592        N598   1.320       .  A
N593        C619   1.346       .  A
N593       Co609   2.100       .  S
N594        C608   1.353   1_556  A
N595        N623   1.331       .  A
N595       Co613   2.114       .  S
H596        C619   1.081       .  S
H597        C614   1.081       .  S
N598       Co840   2.083   1_544  S
N599       Co613   2.084       .  S
N600        N612   1.331       .  A
N600        N616   1.318       .  A
N600       Co609   2.096       .  S
C601        C615   1.466       .  S
C602        H606   1.081       .  S
C602        C621   1.455       .  S
N603        C614   1.353       .  A
N603       Co613   2.106       .  S
C607        N885   1.356   1_545  A
C607        C916   1.491   1_655  S
Co609       N849   2.085   1_545  S
N610        C621   1.344       .  A
Co613      Cl882   2.453       .  S
Cl620      Co840   2.455   1_545  S
Cl620      Co875   2.453   1_545  S
C621        N686   1.426       .  S
N623        C869   1.356       .  A
C624        N642   1.345       .  A
C624        C661   1.468       .  S
N625        N642   1.319       .  A
N625        N647   1.322       .  A
N625       Co662   2.077       .  S
C626        N651   1.340       .  A
C626        H671   1.081       .  S
C626        C664   1.458       .  S
H627        C668   1.081       .  S
C628        N652   1.331       .  A
C628        H657   1.081       .  S
C628        C632   1.456       .  S
Co629       N647   2.101       .  S
Co629       N637   2.114       .  S
Co629       N669   2.091       .  S
N630        C668   1.347       .  A
N630       Co631   2.097       .  S
Co631       N634   2.101       .  S
Co631       N913   2.089       .  S
Co631       N638   2.077       .  S
Co631      Cl935   2.460       .  S
C632        N670   1.358       .  A
N633        N640   1.319       .  A
N633        N663   1.324       .  A
N634        N652   1.320       .  A
N634        N670   1.332       .  A
N635        C664   1.351       .  A
N635        N645   1.326       .  A
H636        C661   1.081       .  S
N637        N658   1.331       .  A
N638        N656   1.322       .  A
N638        N643   1.318       .  A
C639        N643   1.345       .  A
C639        N716   1.434       .  S
C639        C667   1.469       .  S
N640        C655   1.341       .  A
N640       Co924   2.085       .  S
C641        N669   1.333       .  A
C641        H675   1.081       .  S
C641        C644   1.459       .  S
C644        N665   1.357       .  A
C644        N713   1.442       .  S
N645        N651   1.319       .  A
N646        C672   1.348       .  A
N646       Co662   2.105       .  S
N647        C661   1.348       .  A
N648        N676   1.329       .  A
N648       Co666   2.098       .  S
H649        C672   1.082       .  S
H650        C667   1.081       .  S
N651       Co893   2.086   1_545  S
N652       Co666   2.077       .  S
N653        N665   1.333       .  A
N653        N669   1.322       .  A
N653       Co662   2.103       .  S
C654        C869   1.491       .  S
C654        C668   1.462       .  S
C655        H659   1.081       .  S
C655        C674   1.457       .  S
N656        C667   1.349       .  A
N656       Co666   2.101       .  S
C660        C672   1.466       .  S
Co662       N902   2.084   1_545  S
N663        C674   1.347       .  A
Co666      Cl935   2.451       .  S
Cl673      Co893   2.459   1_545  S
Cl673      Co928   2.451   1_545  S
C674        N709   1.425       .  S
C677        C679   1.550       .  S
C677        C681   1.544       .  S
C677        C680   1.541       .  S
C677        C730   1.496       .  S
C678        C682   1.526       .  S
C678        C684   1.523       .  S
C678        C683   1.530       .  S
C678        C749   1.502       .  S
C679        C687   1.383       .  A
C679        C682   1.392       .  A
C680        C691   1.390       .  A
C680        C683   1.390       .  A
C681        C695   1.391       .  A
C681        C684   1.390       .  A
C682        C685   1.378       .  A
C683        C689   1.363       .  A
C684        C692   1.362       .  A
C685        N686   1.355       .  A
C685        H698   1.082       .  S
N686        C687   1.354       .  A
C687        H688   1.080       .  S
C689        N690   1.355       .  A
C689        H699   1.079       .  S
N690        C691   1.362       .  A
C691        H697   1.082       .  S
C692        N693   1.356       .  A
C692        H694   1.083       .  S
N693        C695   1.363       .  A
C695        H696   1.082       .  S
C700        C702   1.543       .  S
C700        C704   1.539       .  S
C700        C703   1.546       .  S
C700        C746   1.497       .  S
C701        C705   1.538       .  S
C701        C707   1.524       .  S
C701        C706   1.529       .  S
C701        C733   1.501       .  S
C702        C710   1.378       .  A
C702        C705   1.396       .  A
C703        C714   1.394       .  A
C703        C706   1.389       .  A
C704        C718   1.386       .  A
C704        C707   1.387       .  A
C705        C708   1.383       .  A
C706        C712   1.365       .  A
C707        C715   1.366       .  A
C708        N709   1.353       .  A
C708        H721   1.078       .  S
N709        C710   1.351       .  A
C710        H711   1.081       .  S
C712        N713   1.356       .  A
C712        H722   1.081       .  S
N713        C714   1.366       .  A
C714        H720   1.082       .  S
C715        N716   1.356       .  A
C715        H717   1.083       .  S
N716        C718   1.361       .  A
C718        H719   1.082       .  S
C723        C728   1.379       .  A
C723        C724   1.396       .  A
C723        O729   1.307       .  A
C724        C725   1.394       .  A
C724        H735   1.083       .  S
C725        C734   1.355       .  A
C725        C726   1.377       .  A
C726        C727   1.403       .  A
C726        O732   1.313       .  A
C727        C728   1.400       .  A
C727        H736   1.082       .  S
C728        C731   1.364       .  A
O729        C730   1.326       .  A
C730        C731   1.391       .  A
C731        H737   1.082       .  S
O732        C733   1.332       .  A
C733        C734   1.390       .  A
C734        H738   1.075       .  S
C739        C744   1.381       .  A
C739        C740   1.397       .  A
C739        O745   1.317       .  A
C740        C741   1.399       .  A
C740        H751   1.082       .  S
C741        C750   1.351       .  A
C741        C742   1.379       .  A
C742        C743   1.400       .  A
C742        O748   1.317       .  A
C743        C744   1.401       .  A
C743        H752   1.083       .  S
C744        C747   1.353       .  A
O745        C746   1.327       .  A
C746        C747   1.392       .  A
C747        H753   1.082       .  S
O748        C749   1.330   1_554  A
C749        C750   1.392   1_556  A
C750        H754   1.081       .  S
C755        C760   1.379       .  A
C755        C756   1.398       .  A
C755        O761   1.310       .  A
C756        C757   1.396       .  A
C756        H767   1.083       .  S
C757        C766   1.355       .  A
C757        C758   1.378       .  A
C758        C759   1.402       .  A
C758        O764   1.313       .  A
C759        C760   1.399       .  A
C759        H768   1.082       .  S
C760        C763   1.361       .  A
O761        C762   1.327       .  A
C762        C763   1.391       .  A
C763        H769   1.082       .  S
O764        C765   1.330       .  A
C765        C766   1.391       .  A
C766        H770   1.077       .  S
C771        C776   1.379       .  A
C771        C772   1.400       .  A
C771        O777   1.311       .  A
C772        C773   1.397       .  A
C772        H783   1.083       .  S
C773        C782   1.359       .  A
C773        C774   1.378       .  A
C774        C775   1.400       .  A
C774        O780   1.311       .  A
C775        C776   1.398       .  A
C775        H784   1.082       .  S
C776        C779   1.360       .  A
O777        C778   1.329       .  A
C778        C779   1.389       .  A
C779        H785   1.082       .  S
O780        C781   1.330       .  A
C781        C782   1.391       .  A
C782        H786   1.079       .  S
C787        C789   1.548       .  S
C787        C791   1.548       .  S
C787        C790   1.543       .  S
C787       C1040   1.497       .  S
C788        C792   1.528       .  S
C788        C794   1.521       .  S
C788        C793   1.528       .  S
C788       C1024   1.500       .  S
C789        C797   1.382       .  A
C789        C792   1.392   1_554  A
C790        C801   1.393       .  A
C790        C793   1.390   1_554  A
C791        C805   1.392       .  A
C791        C794   1.389   1_554  A
C792        C795   1.378       .  A
C793        C799   1.364       .  A
C794        C802   1.361       .  A
C795        N796   1.356   1_556  A
C795        H808   1.083       .  S
N796        C797   1.354       .  A
N796        C873   1.427       .  S
C797        H798   1.081       .  S
C799        N800   1.353   1_556  A
C799        H809   1.081       .  S
N800        C801   1.363       .  A
N800        C833   1.435   1_554  S
C801        H807   1.082       .  S
C802        N803   1.355       .  A
C802        H804   1.082       .  S
N803        C805   1.365   1_556  A
N803        C841   1.438       .  S
C805        H806   1.082       .  S
C810        C812   1.547       .  S
C810        C814   1.541       .  S
C810        C813   1.551       .  S
C810       C1027   1.501       .  S
C811        C815   1.535       .  S
C811        C817   1.526       .  S
C811        C816   1.523       .  S
C811       C1043   1.500       .  S
C812        C820   1.382       .  A
C812        C815   1.395       .  A
C813        C824   1.392       .  A
C813        C816   1.392       .  A
C814        C828   1.391       .  A
C814        C817   1.386       .  A
C815        C818   1.381       .  A
C816        C822   1.366       .  A
C817        C825   1.365       .  A
C818        N819   1.355       .  A
C818        H831   1.080       .  S
N819        C820   1.356       .  A
N819        C926   1.430       .  S
C820        H821   1.082       .  S
C822        N823   1.353       .  A
C822        H832   1.083       .  S
N823        C824   1.360       .  A
N823        C886   1.434       .  S
C824        H830   1.078       .  S
C825        N826   1.356       .  A
C825        H827   1.081       .  S
N826        C828   1.363       .  A
N826        C894   1.439       .  S
C828        H829   1.082       .  S
C833        N851   1.346       .  A
C833        C870   1.470   1_556  S
N834        N851   1.316       .  A
N834        N856   1.320       .  A
N834       Co871   2.077       .  S
C835        N860   1.343       .  A
C835        H880   1.081       .  S
C835        C873   1.455       .  S
H836        C877   1.081       .  S
C837        N861   1.332       .  A
C837        H866   1.081       .  S
C837        C841   1.459       .  S
Co838       N856   2.100       .  S
Co838       N878   2.080       .  S
N839        C877   1.348       .  A
N839       Co840   2.107   1_554  S
Co840       N843   2.096       .  S
Co840       N847   2.076       .  S
C841        N879   1.357   1_556  A
N842        N849   1.321       .  A
N842        N872   1.325       .  A
N843        N861   1.320       .  A
N843        N879   1.331   1_556  A
N844        C873   1.346       .  A
N844        N854   1.325       .  A
H845        C870   1.081       .  S
N847        N865   1.322       .  A
N847        N852   1.316       .  A
C848        N852   1.343       .  A
C848        N955   1.434       .  S
C848        C876   1.470       .  S
N849        C864   1.343       .  A
C850        N878   1.330       .  A
C850        H884   1.081       .  S
C850        C853   1.460       .  S
C853        N874   1.358       .  A
C853        N952   1.438       .  S
N854        N860   1.320       .  A
N855        C881   1.347       .  A
N855       Co871   2.102       .  S
N856        C870   1.352   1_556  A
N857        N885   1.331       .  A
N857       Co875   2.114       .  S
H858        C881   1.081       .  S
H859        C876   1.081       .  S
N861       Co875   2.085       .  S
N862        N874   1.331       .  A
N862        N878   1.318       .  A
N862       Co871   2.097       .  S
C863        C877   1.466   1_545  S
C864        H868   1.081   1_565  S
C864        C883   1.453       .  S
N865        C876   1.352       .  A
N865       Co875   2.101       .  S
N872        C883   1.345       .  A
C883        N948   1.425       .  S
C886        N904   1.345       .  A
C886        C923   1.467       .  S
N887        N904   1.320       .  A
N887        N909   1.322       .  A
N887       Co924   2.078       .  S
C888        N913   1.341       .  A
C888        H933   1.081       .  S
C888        C926   1.458       .  S
H889        C930   1.081       .  S
C890        N914   1.331       .  A
C890        H919   1.081       .  S
C890        C894   1.456       .  S
Co891       N909   2.099       .  S
Co891       N899   2.115       .  S
Co891       N931   2.092       .  S
N892        C930   1.346       .  A
N892       Co893   2.099       .  S
Co893       N896   2.098       .  S
Co893       N900   2.080       .  S
C894        N932   1.357       .  A
N895        N902   1.319       .  A
N895        N925   1.324       .  A
N896        N914   1.319       .  A
N896        N932   1.332       .  A
N897        C926   1.351       .  A
N897        N907   1.326       .  A
H898        C923   1.081       .  S
N899        N920   1.331       .  A
N900        N918   1.322       .  A
N900        N905   1.318       .  A
C901        N905   1.345       .  A
C901        N978   1.433       .  S
C901        C929   1.467       .  S
N902        C917   1.340       .  A
C903        N931   1.333       .  A
C903        H937   1.081       .  S
C903        C906   1.460       .  S
C906        N927   1.357       .  A
C906        N975   1.441       .  S
N907        N913   1.319       .  A
N908        C934   1.348       .  A
N908       Co924   2.106       .  S
N909        C923   1.348       .  A
N910        N938   1.329       .  A
N910       Co928   2.099       .  S
H911        C934   1.081       .  S
H912        C929   1.081       .  S
N914       Co928   2.076       .  S
N915        N927   1.332       .  A
N915        N931   1.322       .  A
N915       Co924   2.100       .  S
C916        C930   1.462   1_445  S
C917        H921   1.081   1_565  S
C917        C936   1.457       .  S
N918        C929   1.348       .  A
N918       Co928   2.096       .  S
C922        C934   1.466       .  S
N925        C936   1.347       .  A
C936        N971   1.424       .  S
C939        C941   1.551       .  S
C939        C943   1.542       .  S
C939        C942   1.544       .  S
C939        C992   1.495       .  S
C940        C944   1.525       .  S
C940        C946   1.521       .  S
C940        C945   1.529       .  S
C940       C1011   1.501       .  S
C941        C949   1.384       .  A
C941        C944   1.391       .  A
C942        C953   1.391       .  A
C942        C945   1.390       .  A
C943        C957   1.391       .  A
C943        C946   1.389       .  A
C944        C947   1.377       .  A
C945        C951   1.362       .  A
C946        C954   1.360       .  A
C947        N948   1.354       .  A
C947        H960   1.082       .  S
N948        C949   1.353       .  A
C949        H950   1.080       .  S
C951        N952   1.354       .  A
C951        H961   1.079       .  S
N952        C953   1.363       .  A
C953        H959   1.082       .  S
C954        N955   1.355       .  A
C954        H956   1.083       .  S
N955        C957   1.363       .  A
C957        H958   1.082       .  S
C962        C964   1.542       .  S
C962        C966   1.537       .  S
C962        C965   1.549       .  S
C962       C1008   1.497       .  S
C963        C967   1.539       .  S
C963        C969   1.523       .  S
C963        C968   1.527       .  S
C963        C995   1.501       .  S
C964        C972   1.378       .  A
C964        C967   1.396       .  A
C965        C976   1.394       .  A
C965        C968   1.390       .  A
C966        C980   1.386       .  A
C966        C969   1.386       .  A
C967        C970   1.383       .  A
C968        C974   1.364       .  A
C969        C977   1.366       .  A
C970        N971   1.352       .  A
C970        H983   1.076       .  S
N971        C972   1.351       .  A
C972        H973   1.081       .  S
C974        N975   1.355       .  A
C974        H984   1.081       .  S
N975        C976   1.366       .  A
C976        H982   1.082       .  S
C977        N978   1.356       .  A
C977        H979   1.083       .  S
N978        C980   1.361       .  A
C980        H981   1.082       .  S
C985        C990   1.379       .  A
C985        C986   1.395       .  A
C985        O991   1.306       .  A
C986        C987   1.393       .  A
C986        H997   1.083       .  S
C987        C996   1.353       .  A
C987        C988   1.377       .  A
C988        C989   1.403       .  A
C988        O994   1.312       .  A
C989        C990   1.401       .  A
C989        H998   1.082       .  S
C990        C993   1.364       .  A
O991        C992   1.325       .  A
C992        C993   1.391       .  A
C993        H999   1.082       .  S
O994        C995   1.333       .  A
C995        C996   1.389       .  A
C996       H1000   1.074       .  S
C1001      C1006   1.381       .  A
C1001      C1002   1.397       .  A
C1001      O1007   1.317       .  A
C1002      C1003   1.398       .  A
C1002      H1013   1.082       .  S
C1003      C1012   1.351       .  A
C1003      C1004   1.379       .  A
C1004      C1005   1.400       .  A
C1004      O1010   1.317       .  A
C1005      C1006   1.401       .  A
C1005      H1014   1.083       .  S
C1006      C1009   1.353       .  A
O1007      C1008   1.327       .  A
C1008      C1009   1.392       .  A
C1009      H1015   1.082       .  S
O1010      C1011   1.330   1_554  A
C1011      C1012   1.391   1_556  A
C1012      H1016   1.080       .  S
C1017      C1022   1.379       .  A
C1017      C1018   1.399       .  A
C1017      O1023   1.310       .  A
C1018      C1019   1.397       .  A
C1018      H1029   1.083       .  S
C1019      C1028   1.356       .  A
C1019      C1020   1.378       .  A
C1020      C1021   1.401       .  A
C1020      O1026   1.313       .  A
C1021      C1022   1.399       .  A
C1021      H1030   1.082       .  S
C1022      C1025   1.361       .  A
O1023      C1024   1.328       .  A
C1024      C1025   1.391       .  A
C1025      H1031   1.082       .  S
O1026      C1027   1.330       .  A
C1027      C1028   1.391       .  A
C1028      H1032   1.077       .  S
C1033      C1038   1.379       .  A
C1033      C1034   1.400       .  A
C1033      O1039   1.310       .  A
C1034      C1035   1.397       .  A
C1034      H1045   1.083       .  S
C1035      C1044   1.359       .  A
C1035      C1036   1.378       .  A
C1036      C1037   1.401       .  A
C1036      O1042   1.311       .  A
C1037      C1038   1.398       .  A
C1037      H1046   1.082       .  S
C1038      C1041   1.361       .  A
O1039      C1040   1.328       .  A
C1040      C1041   1.389       .  A
C1041      H1047   1.082       .  S
O1042      C1043   1.330       .  A
C1043      C1044   1.391       .  A
C1044      H1048   1.079       .  S
